gem5 Simulator System.  http://gem5.org
gem5 is copyrighted software; use the --copyright option for details.

gem5 compiled Mar 13 2019 21:26:43
gem5 started Mar 13 2019 22:35:15
gem5 executing on summit, pid 28611
command line: build/X86/gem5.opt -re --outdir=../results/gem5/micro/memory_load_ind4/O3_Small ../configs/run.py O3_Small Inf ../benchmarks/micro/memory_load_ind4/memory_load_ind4 '10000 2048'

Global frequency set at 1000000000000 ticks per second
102.461485 ms
