
---------- Begin Simulation Statistics ----------
sim_seconds                                  0.003432                       # Number of seconds simulated
sim_ticks                                  3431895000                       # Number of ticks simulated
final_tick                                 3431895000                       # Number of ticks from beginning of simulation (restored from checkpoints and never reset)
sim_freq                                 1000000000000                       # Frequency of simulated ticks
host_inst_rate                                 127778                       # Simulator instruction rate (inst/s)
host_op_rate                                   248141                       # Simulator op (including micro ops) rate (op/s)
host_tick_rate                              149581938                       # Simulator tick rate (ticks/s)
host_mem_usage                                 689668                       # Number of bytes of host memory used
host_seconds                                    22.94                       # Real time elapsed on the host
sim_insts                                     2931648                       # Number of instructions simulated
sim_ops                                       5693163                       # Number of ops (including micro ops) simulated
system.clk_domain.voltage_domain.voltage            1                       # Voltage in Volts
system.clk_domain.clock                          1000                       # Clock period in ticks
system.mem_ctrl.pwrStateResidencyTicks::UNDEFINED   3431895000                       # Cumulative time (in ticks) in various power states
system.mem_ctrl.bytes_read::.cpu.inst           43776                       # Number of bytes read from this memory
system.mem_ctrl.bytes_read::.cpu.data           32640                       # Number of bytes read from this memory
system.mem_ctrl.bytes_read::total               76416                       # Number of bytes read from this memory
system.mem_ctrl.bytes_inst_read::.cpu.inst        43776                       # Number of instructions bytes read from this memory
system.mem_ctrl.bytes_inst_read::total          43776                       # Number of instructions bytes read from this memory
system.mem_ctrl.bytes_written::.writebacks          128                       # Number of bytes written to this memory
system.mem_ctrl.bytes_written::total              128                       # Number of bytes written to this memory
system.mem_ctrl.num_reads::.cpu.inst              684                       # Number of read requests responded to by this memory
system.mem_ctrl.num_reads::.cpu.data              510                       # Number of read requests responded to by this memory
system.mem_ctrl.num_reads::total                 1194                       # Number of read requests responded to by this memory
system.mem_ctrl.num_writes::.writebacks             2                       # Number of write requests responded to by this memory
system.mem_ctrl.num_writes::total                   2                       # Number of write requests responded to by this memory
system.mem_ctrl.bw_read::.cpu.inst           12755635                       # Total read bandwidth from this memory (bytes/s)
system.mem_ctrl.bw_read::.cpu.data            9510780                       # Total read bandwidth from this memory (bytes/s)
system.mem_ctrl.bw_read::total               22266415                       # Total read bandwidth from this memory (bytes/s)
system.mem_ctrl.bw_inst_read::.cpu.inst      12755635                       # Instruction read bandwidth from this memory (bytes/s)
system.mem_ctrl.bw_inst_read::total          12755635                       # Instruction read bandwidth from this memory (bytes/s)
system.mem_ctrl.bw_write::.writebacks           37297                       # Write bandwidth from this memory (bytes/s)
system.mem_ctrl.bw_write::total                 37297                       # Write bandwidth from this memory (bytes/s)
system.mem_ctrl.bw_total::.writebacks           37297                       # Total bandwidth to/from this memory (bytes/s)
system.mem_ctrl.bw_total::.cpu.inst          12755635                       # Total bandwidth to/from this memory (bytes/s)
system.mem_ctrl.bw_total::.cpu.data           9510780                       # Total bandwidth to/from this memory (bytes/s)
system.mem_ctrl.bw_total::total              22303713                       # Total bandwidth to/from this memory (bytes/s)
system.pwrStateResidencyTicks::UNDEFINED   3431895000                       # Cumulative time (in ticks) in various power states
system.cpu.branchPred.lookups                   94203                       # Number of BP lookups
system.cpu.branchPred.condPredicted             94203                       # Number of conditional branches predicted
system.cpu.branchPred.condIncorrect              1093                       # Number of conditional branches incorrect
system.cpu.branchPred.BTBLookups                81311                       # Number of BTB lookups
system.cpu.branchPred.BTBHits                       0                       # Number of BTB hits
system.cpu.branchPred.BTBCorrect                    0                       # Number of correct BTB predictions (this stat may not work properly.
system.cpu.branchPred.BTBHitPct              0.000000                       # BTB Hit Percentage
system.cpu.branchPred.usedRAS                     134                       # Number of times the RAS was used to get a target.
system.cpu.branchPred.RASInCorrect                 66                       # Number of incorrect RAS predictions.
system.cpu.branchPred.indirectLookups           81311                       # Number of indirect predictor lookups.
system.cpu.branchPred.indirectHits              80529                       # Number of indirect target hits.
system.cpu.branchPred.indirectMisses              782                       # Number of indirect misses.
system.cpu.branchPredindirectMispredicted          374                       # Number of mispredicted indirect branches.
system.cpu.branchPred.tageLongestMatchProviderCorrect          493                       # Number of times TAGE Longest Match is the provider and the prediction is correct
system.cpu.branchPred.tageAltMatchProviderCorrect            0                       # Number of times TAGE Alt Match is the provider and the prediction is correct
system.cpu.branchPred.bimodalAltMatchProviderCorrect            0                       # Number of times TAGE Alt Match is the bimodal and it is the provider and the prediction is correct
system.cpu.branchPred.tageBimodalProviderCorrect        11596                       # Number of times there are no hits on the TAGE tables and the bimodal prediction is correct
system.cpu.branchPred.tageLongestMatchProviderWrong           16                       # Number of times TAGE Longest Match is the provider and the prediction is wrong
system.cpu.branchPred.tageAltMatchProviderWrong            0                       # Number of times TAGE Alt Match is the provider and the prediction is wrong
system.cpu.branchPred.bimodalAltMatchProviderWrong            1                       # Number of times TAGE Alt Match is the bimodal and it is the provider and the prediction is wrong
system.cpu.branchPred.tageBimodalProviderWrong          617                       # Number of times there are no hits on the TAGE tables and the bimodal prediction is wrong
system.cpu.branchPred.tageAltMatchProviderWouldHaveHit            9                       # Number of times TAGE Longest Match is the provider, the prediction is wrong and Alt Match prediction was correct
system.cpu.branchPred.tageLongestMatchProviderWouldHaveHit            1                       # Number of times TAGE Alt Match is the provider, the prediction is wrong and Longest Match prediction was correct
system.cpu.branchPred.tageLongestMatchProvider::0            0                       # TAGE provider for longest match
system.cpu.branchPred.tageLongestMatchProvider::1          224                       # TAGE provider for longest match
system.cpu.branchPred.tageLongestMatchProvider::2          151                       # TAGE provider for longest match
system.cpu.branchPred.tageLongestMatchProvider::3           28                       # TAGE provider for longest match
system.cpu.branchPred.tageLongestMatchProvider::4           51                       # TAGE provider for longest match
system.cpu.branchPred.tageLongestMatchProvider::5           48                       # TAGE provider for longest match
system.cpu.branchPred.tageLongestMatchProvider::6            5                       # TAGE provider for longest match
system.cpu.branchPred.tageLongestMatchProvider::7            0                       # TAGE provider for longest match
system.cpu.branchPred.tageLongestMatchProvider::8            1                       # TAGE provider for longest match
system.cpu.branchPred.tageLongestMatchProvider::9            0                       # TAGE provider for longest match
system.cpu.branchPred.tageLongestMatchProvider::10            0                       # TAGE provider for longest match
system.cpu.branchPred.tageLongestMatchProvider::11            0                       # TAGE provider for longest match
system.cpu.branchPred.tageLongestMatchProvider::12            1                       # TAGE provider for longest match
system.cpu.branchPred.tageAltMatchProvider::0          386                       # TAGE provider for alt match
system.cpu.branchPred.tageAltMatchProvider::1           45                       # TAGE provider for alt match
system.cpu.branchPred.tageAltMatchProvider::2           76                       # TAGE provider for alt match
system.cpu.branchPred.tageAltMatchProvider::3            2                       # TAGE provider for alt match
system.cpu.branchPred.tageAltMatchProvider::4            0                       # TAGE provider for alt match
system.cpu.branchPred.tageAltMatchProvider::5            0                       # TAGE provider for alt match
system.cpu.branchPred.tageAltMatchProvider::6            0                       # TAGE provider for alt match
system.cpu.branchPred.tageAltMatchProvider::7            0                       # TAGE provider for alt match
system.cpu.branchPred.tageAltMatchProvider::8            0                       # TAGE provider for alt match
system.cpu.branchPred.tageAltMatchProvider::9            0                       # TAGE provider for alt match
system.cpu.branchPred.tageAltMatchProvider::10            0                       # TAGE provider for alt match
system.cpu.branchPred.tageAltMatchProvider::11            0                       # TAGE provider for alt match
system.cpu.branchPred.tageAltMatchProvider::12            0                       # TAGE provider for alt match
system.cpu.branchPred.loopPredictorCorrect        79680                       # Number of times the loop predictor is the provider and the prediction is correct
system.cpu.branchPred.loopPredictorWrong            0                       # Number of times the loop predictor is the provider and the prediction is wrong
system.cpu.dtb.walker.pwrStateResidencyTicks::UNDEFINED   3431895000                       # Cumulative time (in ticks) in various power states
system.cpu.dtb.rdAccesses                     2562683                       # TLB accesses on read requests
system.cpu.dtb.wrAccesses                        2442                       # TLB accesses on write requests
system.cpu.dtb.rdMisses                            77                       # TLB misses on read requests
system.cpu.dtb.wrMisses                            25                       # TLB misses on write requests
system.cpu.apic_clk_domain.clock                16000                       # Clock period in ticks
system.cpu.interrupts.pwrStateResidencyTicks::UNDEFINED   3431895000                       # Cumulative time (in ticks) in various power states
system.cpu.itb.walker.pwrStateResidencyTicks::UNDEFINED   3431895000                       # Cumulative time (in ticks) in various power states
system.cpu.itb.rdAccesses                           0                       # TLB accesses on read requests
system.cpu.itb.wrAccesses                      322594                       # TLB accesses on write requests
system.cpu.itb.rdMisses                             0                       # TLB misses on read requests
system.cpu.itb.wrMisses                            63                       # TLB misses on write requests
system.cpu.workload.numSyscalls                    11                       # Number of system calls
system.cpu.pwrStateResidencyTicks::ON      3431895000                       # Cumulative time (in ticks) in various power states
system.cpu.numCycles                          3431896                       # number of cpu cycles simulated
system.cpu.numWorkItemsStarted                      0                       # number of work items this cpu started
system.cpu.numWorkItemsCompleted                    0                       # number of work items this cpu completed
system.cpu.fetch.icacheStallCycles             329682                       # Number of cycles fetch is stalled on an Icache miss
system.cpu.fetch.Insts                        2940657                       # Number of instructions fetch has processed
system.cpu.fetch.Branches                       94203                       # Number of branches that fetch encountered
system.cpu.fetch.predictedBranches              80663                       # Number of branches that fetch has predicted taken
system.cpu.fetch.Cycles                       3100935                       # Number of cycles fetch has run and was not squashing or blocked
system.cpu.fetch.SquashCycles                    2208                       # Number of cycles fetch has spent squashing
system.cpu.fetch.MiscStallCycles                    4                       # Number of cycles fetch has spent waiting on interrupts, or bad addresses, or out of MSHRs
system.cpu.fetch.PendingTrapStallCycles           116                       # Number of stall cycles due to pending traps
system.cpu.fetch.PendingQuiesceStallCycles            7                       # Number of stall cycles due to pending quiesce instructions
system.cpu.fetch.CacheLines                    322577                       # Number of cache lines fetched
system.cpu.fetch.IcacheSquashes                   314                       # Number of outstanding Icache misses that were squashed
system.cpu.fetch.rateDist::samples            3431848                       # Number of instructions fetched each cycle (Total)
system.cpu.fetch.rateDist::mean              1.663825                       # Number of instructions fetched each cycle (Total)
system.cpu.fetch.rateDist::stdev             0.717906                       # Number of instructions fetched each cycle (Total)
system.cpu.fetch.rateDist::underflows               0      0.00%      0.00% # Number of instructions fetched each cycle (Total)
system.cpu.fetch.rateDist::0                   501441     14.61%     14.61% # Number of instructions fetched each cycle (Total)
system.cpu.fetch.rateDist::1                   150821      4.39%     19.01% # Number of instructions fetched each cycle (Total)
system.cpu.fetch.rateDist::2                  2779586     80.99%    100.00% # Number of instructions fetched each cycle (Total)
system.cpu.fetch.rateDist::overflows                0      0.00%    100.00% # Number of instructions fetched each cycle (Total)
system.cpu.fetch.rateDist::min_value                0                       # Number of instructions fetched each cycle (Total)
system.cpu.fetch.rateDist::max_value                2                       # Number of instructions fetched each cycle (Total)
system.cpu.fetch.rateDist::total              3431848                       # Number of instructions fetched each cycle (Total)
system.cpu.fetch.branchRate                  0.027449                       # Number of branch fetches per cycle
system.cpu.fetch.rate                        0.856861                       # Number of inst fetches per cycle
system.cpu.decode.IdleCycles                   498907                       # Number of cycles decode is idle
system.cpu.decode.BlockedCycles                  3515                       # Number of cycles decode is blocked
system.cpu.decode.RunCycles                   2927427                       # Number of cycles decode is running
system.cpu.decode.UnblockCycles                   895                       # Number of cycles decode is unblocking
system.cpu.decode.SquashCycles                   1104                       # Number of cycles decode is squashing
system.cpu.decode.DecodedInsts                5706190                       # Number of instructions handled by decode
system.cpu.rename.SquashCycles                   1104                       # Number of cycles rename is squashing
system.cpu.rename.IdleCycles                   499790                       # Number of cycles rename is idle
system.cpu.rename.BlockCycles                    3239                       # Number of cycles rename is blocking
system.cpu.rename.serializeStallCycles            211                       # count of cycles rename stalled for serializing inst
system.cpu.rename.RunCycles                   2927300                       # Number of cycles rename is running
system.cpu.rename.UnblockCycles                   204                       # Number of cycles rename is unblocking
system.cpu.rename.RenamedInsts                5704476                       # Number of instructions processed by rename
system.cpu.rename.ROBFullEvents                    52                       # Number of times rename has blocked due to ROB full
system.cpu.rename.RenamedOperands            11097850                       # Number of destination operands rename has renamed
system.cpu.rename.RenameLookups              14083643                       # Number of register rename lookups that rename has made
system.cpu.rename.int_rename_lookups         10857077                       # Number of integer rename lookups
system.cpu.rename.fp_rename_lookups              4450                       # Number of floating rename lookups
system.cpu.rename.CommittedMaps              11085627                       # Number of HB maps that are committed
system.cpu.rename.UndoneMaps                    12223                       # Number of HB maps that are undone due to squashing
system.cpu.rename.serializingInsts                 17                       # count of serializing insts renamed
system.cpu.rename.tempSerializingInsts             16                       # count of temporary serializing insts renamed
system.cpu.rename.skidInsts                       389                       # count of insts added to the skid buffer
system.cpu.memDep0.insertedLoads              2563050                       # Number of loads inserted to the mem dependence unit.
system.cpu.memDep0.insertedStores                2807                       # Number of stores inserted to the mem dependence unit.
system.cpu.memDep0.conflictingLoads                16                       # Number of conflicting loads.
system.cpu.memDep0.conflictingStores               31                       # Number of conflicting stores.
system.cpu.iq.iqInstsAdded                    5700855                       # Number of instructions added to the IQ (excludes non-spec)
system.cpu.iq.iqNonSpecInstsAdded                  93                       # Number of non-speculative instructions added to the IQ
system.cpu.iq.iqInstsIssued                   5698741                       # Number of instructions issued
system.cpu.iq.iqSquashedInstsIssued               450                       # Number of squashed instructions issued
system.cpu.iq.iqSquashedInstsExamined            7784                       # Number of squashed instructions iterated over during squash; mainly for profiling
system.cpu.iq.iqSquashedOperandsExamined         9585                       # Number of squashed operands that are examined and possibly removed from graph
system.cpu.iq.iqSquashedNonSpecRemoved             82                       # Number of squashed non-spec instructions that were removed
system.cpu.iq.issued_per_cycle::samples       3431848                       # Number of insts issued each cycle
system.cpu.iq.issued_per_cycle::mean         1.660546                       # Number of insts issued each cycle
system.cpu.iq.issued_per_cycle::stdev        0.488885                       # Number of insts issued each cycle
system.cpu.iq.issued_per_cycle::underflows            0      0.00%      0.00% # Number of insts issued each cycle
system.cpu.iq.issued_per_cycle::0               25368      0.74%      0.74% # Number of insts issued each cycle
system.cpu.iq.issued_per_cycle::1             1114219     32.47%     33.21% # Number of insts issued each cycle
system.cpu.iq.issued_per_cycle::2             2292261     66.79%    100.00% # Number of insts issued each cycle
system.cpu.iq.issued_per_cycle::overflows            0      0.00%    100.00% # Number of insts issued each cycle
system.cpu.iq.issued_per_cycle::min_value            0                       # Number of insts issued each cycle
system.cpu.iq.issued_per_cycle::max_value            2                       # Number of insts issued each cycle
system.cpu.iq.issued_per_cycle::total         3431848                       # Number of insts issued each cycle
system.cpu.iq.fu_full::No_OpClass                   0                       # attempts to use FU when none available
system.cpu.iq.fu_full::IntAlu                       0                       # attempts to use FU when none available
system.cpu.iq.fu_full::IntMult                      0                       # attempts to use FU when none available
system.cpu.iq.fu_full::IntDiv                       0                       # attempts to use FU when none available
system.cpu.iq.fu_full::FloatAdd                     0                       # attempts to use FU when none available
system.cpu.iq.fu_full::FloatCmp                     0                       # attempts to use FU when none available
system.cpu.iq.fu_full::FloatCvt                     0                       # attempts to use FU when none available
system.cpu.iq.fu_full::FloatMult                    0                       # attempts to use FU when none available
system.cpu.iq.fu_full::FloatMultAcc                 0                       # attempts to use FU when none available
system.cpu.iq.fu_full::FloatDiv                     0                       # attempts to use FU when none available
system.cpu.iq.fu_full::FloatMisc                    0                       # attempts to use FU when none available
system.cpu.iq.fu_full::FloatSqrt                    0                       # attempts to use FU when none available
system.cpu.iq.fu_full::SimdAdd                      0                       # attempts to use FU when none available
system.cpu.iq.fu_full::SimdAddAcc                   0                       # attempts to use FU when none available
system.cpu.iq.fu_full::SimdAlu                      0                       # attempts to use FU when none available
system.cpu.iq.fu_full::SimdCmp                      0                       # attempts to use FU when none available
system.cpu.iq.fu_full::SimdCvt                      0                       # attempts to use FU when none available
system.cpu.iq.fu_full::SimdMisc                     0                       # attempts to use FU when none available
system.cpu.iq.fu_full::SimdMult                     0                       # attempts to use FU when none available
system.cpu.iq.fu_full::SimdMultAcc                  0                       # attempts to use FU when none available
system.cpu.iq.fu_full::SimdShift                    0                       # attempts to use FU when none available
system.cpu.iq.fu_full::SimdShiftAcc                 0                       # attempts to use FU when none available
system.cpu.iq.fu_full::SimdSqrt                     0                       # attempts to use FU when none available
system.cpu.iq.fu_full::SimdFloatAdd                 0                       # attempts to use FU when none available
system.cpu.iq.fu_full::SimdFloatAlu                 0                       # attempts to use FU when none available
system.cpu.iq.fu_full::SimdFloatCmp                 0                       # attempts to use FU when none available
system.cpu.iq.fu_full::SimdFloatCvt                 0                       # attempts to use FU when none available
system.cpu.iq.fu_full::SimdFloatDiv                 0                       # attempts to use FU when none available
system.cpu.iq.fu_full::SimdFloatMisc                0                       # attempts to use FU when none available
system.cpu.iq.fu_full::SimdFloatMult                0                       # attempts to use FU when none available
system.cpu.iq.fu_full::SimdFloatMultAcc             0                       # attempts to use FU when none available
system.cpu.iq.fu_full::SimdFloatSqrt                0                       # attempts to use FU when none available
system.cpu.iq.fu_full::SimdAes                      0                       # attempts to use FU when none available
system.cpu.iq.fu_full::SimdAesMix                   0                       # attempts to use FU when none available
system.cpu.iq.fu_full::SimdSha1Hash                 0                       # attempts to use FU when none available
system.cpu.iq.fu_full::SimdSha1Hash2                0                       # attempts to use FU when none available
system.cpu.iq.fu_full::SimdSha256Hash               0                       # attempts to use FU when none available
system.cpu.iq.fu_full::SimdSha256Hash2              0                       # attempts to use FU when none available
system.cpu.iq.fu_full::SimdShaSigma2                0                       # attempts to use FU when none available
system.cpu.iq.fu_full::SimdShaSigma3                0                       # attempts to use FU when none available
system.cpu.iq.fu_full::MemRead                      0                       # attempts to use FU when none available
system.cpu.iq.fu_full::MemWrite                     0                       # attempts to use FU when none available
system.cpu.iq.fu_full::FloatMemRead                 0                       # attempts to use FU when none available
system.cpu.iq.fu_full::FloatMemWrite                0                       # attempts to use FU when none available
system.cpu.iq.fu_full::IprAccess                    0                       # attempts to use FU when none available
system.cpu.iq.fu_full::InstPrefetch                 0                       # attempts to use FU when none available
system.cpu.iq.FU_type_0::No_OpClass               373      0.01%      0.01% # Type of FU issued
system.cpu.iq.FU_type_0::IntAlu               3131735     54.95%     54.96% # Type of FU issued
system.cpu.iq.FU_type_0::IntMult                   27      0.00%     54.96% # Type of FU issued
system.cpu.iq.FU_type_0::IntDiv                    36      0.00%     54.96% # Type of FU issued
system.cpu.iq.FU_type_0::FloatAdd                  19      0.00%     54.96% # Type of FU issued
system.cpu.iq.FU_type_0::FloatCmp                   0      0.00%     54.96% # Type of FU issued
system.cpu.iq.FU_type_0::FloatCvt                   0      0.00%     54.96% # Type of FU issued
system.cpu.iq.FU_type_0::FloatMult                  0      0.00%     54.96% # Type of FU issued
system.cpu.iq.FU_type_0::FloatMultAcc               0      0.00%     54.96% # Type of FU issued
system.cpu.iq.FU_type_0::FloatDiv                   0      0.00%     54.96% # Type of FU issued
system.cpu.iq.FU_type_0::FloatMisc                  0      0.00%     54.96% # Type of FU issued
system.cpu.iq.FU_type_0::FloatSqrt                  0      0.00%     54.96% # Type of FU issued
system.cpu.iq.FU_type_0::SimdAdd                  374      0.01%     54.97% # Type of FU issued
system.cpu.iq.FU_type_0::SimdAddAcc                 0      0.00%     54.97% # Type of FU issued
system.cpu.iq.FU_type_0::SimdAlu                  112      0.00%     54.97% # Type of FU issued
system.cpu.iq.FU_type_0::SimdCmp                    0      0.00%     54.97% # Type of FU issued
system.cpu.iq.FU_type_0::SimdCvt                  159      0.00%     54.97% # Type of FU issued
system.cpu.iq.FU_type_0::SimdMisc                 302      0.01%     54.98% # Type of FU issued
system.cpu.iq.FU_type_0::SimdMult                   0      0.00%     54.98% # Type of FU issued
system.cpu.iq.FU_type_0::SimdMultAcc                0      0.00%     54.98% # Type of FU issued
system.cpu.iq.FU_type_0::SimdShift                186      0.00%     54.98% # Type of FU issued
system.cpu.iq.FU_type_0::SimdShiftAcc               0      0.00%     54.98% # Type of FU issued
system.cpu.iq.FU_type_0::SimdSqrt                   0      0.00%     54.98% # Type of FU issued
system.cpu.iq.FU_type_0::SimdFloatAdd               0      0.00%     54.98% # Type of FU issued
system.cpu.iq.FU_type_0::SimdFloatAlu               0      0.00%     54.98% # Type of FU issued
system.cpu.iq.FU_type_0::SimdFloatCmp               0      0.00%     54.98% # Type of FU issued
system.cpu.iq.FU_type_0::SimdFloatCvt               0      0.00%     54.98% # Type of FU issued
system.cpu.iq.FU_type_0::SimdFloatDiv               0      0.00%     54.98% # Type of FU issued
system.cpu.iq.FU_type_0::SimdFloatMisc              0      0.00%     54.98% # Type of FU issued
system.cpu.iq.FU_type_0::SimdFloatMult              0      0.00%     54.98% # Type of FU issued
system.cpu.iq.FU_type_0::SimdFloatMultAcc            0      0.00%     54.98% # Type of FU issued
system.cpu.iq.FU_type_0::SimdFloatSqrt              0      0.00%     54.98% # Type of FU issued
system.cpu.iq.FU_type_0::SimdAes                    0      0.00%     54.98% # Type of FU issued
system.cpu.iq.FU_type_0::SimdAesMix                 0      0.00%     54.98% # Type of FU issued
system.cpu.iq.FU_type_0::SimdSha1Hash               0      0.00%     54.98% # Type of FU issued
system.cpu.iq.FU_type_0::SimdSha1Hash2              0      0.00%     54.98% # Type of FU issued
system.cpu.iq.FU_type_0::SimdSha256Hash             0      0.00%     54.98% # Type of FU issued
system.cpu.iq.FU_type_0::SimdSha256Hash2            0      0.00%     54.98% # Type of FU issued
system.cpu.iq.FU_type_0::SimdShaSigma2              0      0.00%     54.98% # Type of FU issued
system.cpu.iq.FU_type_0::SimdShaSigma3              0      0.00%     54.98% # Type of FU issued
system.cpu.iq.FU_type_0::MemRead              2562704     44.97%     99.95% # Type of FU issued
system.cpu.iq.FU_type_0::MemWrite                2106      0.04%     99.99% # Type of FU issued
system.cpu.iq.FU_type_0::FloatMemRead             132      0.00%     99.99% # Type of FU issued
system.cpu.iq.FU_type_0::FloatMemWrite            476      0.01%    100.00% # Type of FU issued
system.cpu.iq.FU_type_0::IprAccess                  0      0.00%    100.00% # Type of FU issued
system.cpu.iq.FU_type_0::InstPrefetch               0      0.00%    100.00% # Type of FU issued
system.cpu.iq.FU_type_0::total                5698741                       # Type of FU issued
system.cpu.iq.rate                           1.660523                       # Inst issue rate
system.cpu.iq.fu_busy_cnt                           0                       # FU busy when requested
system.cpu.iq.fu_busy_rate                          0                       # FU busy rate (busy events/executed inst)
system.cpu.iq.int_inst_queue_reads           14825151                       # Number of integer instruction queue reads
system.cpu.iq.int_inst_queue_writes           5706230                       # Number of integer instruction queue writes
system.cpu.iq.int_inst_queue_wakeup_accesses      5695110                       # Number of integer instruction queue wakeup accesses
system.cpu.iq.fp_inst_queue_reads                4629                       # Number of floating instruction queue reads
system.cpu.iq.fp_inst_queue_writes               2504                       # Number of floating instruction queue writes
system.cpu.iq.fp_inst_queue_wakeup_accesses         2268                       # Number of floating instruction queue wakeup accesses
system.cpu.iq.vec_inst_queue_reads                  0                       # Number of vector instruction queue reads
system.cpu.iq.vec_inst_queue_writes                 0                       # Number of vector instruction queue writes
system.cpu.iq.vec_inst_queue_wakeup_accesses            0                       # Number of vector instruction queue wakeup accesses
system.cpu.iq.int_alu_accesses                5696060                       # Number of integer alu accesses
system.cpu.iq.fp_alu_accesses                    2308                       # Number of floating point alu accesses
system.cpu.iq.vec_alu_accesses                      0                       # Number of vector alu accesses
system.cpu.iew.lsq.thread0.forwLoads              529                       # Number of loads that had data forwarded from stores
system.cpu.iew.lsq.thread0.invAddrLoads             0                       # Number of loads ignored due to an invalid address
system.cpu.iew.lsq.thread0.squashedLoads          898                       # Number of loads squashed
system.cpu.iew.lsq.thread0.ignoredResponses            0                       # Number of memory responses ignored because the instruction is squashed
system.cpu.iew.lsq.thread0.memOrderViolation            2                       # Number of memory ordering violations
system.cpu.iew.lsq.thread0.squashedStores          542                       # Number of stores squashed
system.cpu.iew.lsq.thread0.invAddrSwpfs             0                       # Number of software prefetches ignored due to an invalid address
system.cpu.iew.lsq.thread0.blockedLoads             0                       # Number of blocked loads due to partial load-store forwarding
system.cpu.iew.lsq.thread0.rescheduledLoads            0                       # Number of loads that were rescheduled
system.cpu.iew.lsq.thread0.cacheBlocked             0                       # Number of times an access to memory failed due to the cache being blocked
system.cpu.iew.iewIdleCycles                        0                       # Number of cycles IEW is idle
system.cpu.iew.iewSquashCycles                   1104                       # Number of cycles IEW is squashing
system.cpu.iew.iewBlockCycles                    3177                       # Number of cycles IEW is blocking
system.cpu.iew.iewUnblockCycles                     0                       # Number of cycles IEW is unblocking
system.cpu.iew.iewDispatchedInsts             5700948                       # Number of instructions dispatched to IQ
system.cpu.iew.iewDispSquashedInsts                24                       # Number of squashed instructions skipped by dispatch
system.cpu.iew.iewDispLoadInsts               2563050                       # Number of dispatched load instructions
system.cpu.iew.iewDispStoreInsts                 2807                       # Number of dispatched store instructions
system.cpu.iew.iewDispNonSpecInsts                 42                       # Number of dispatched non-speculative instructions
system.cpu.iew.iewIQFullEvents                      0                       # Number of times the IQ has become full, causing a stall
system.cpu.iew.iewLSQFullEvents                     0                       # Number of times the LSQ has become full, causing a stall
system.cpu.iew.memOrderViolationEvents              2                       # Number of memory order violations
system.cpu.iew.predictedTakenIncorrect             94                       # Number of branches that were predicted taken incorrectly
system.cpu.iew.predictedNotTakenIncorrect         1122                       # Number of branches that were predicted not taken incorrectly
system.cpu.iew.branchMispredicts                 1216                       # Number of branch mispredicts detected at execute
system.cpu.iew.iewExecutedInsts               5697823                       # Number of executed instructions
system.cpu.iew.iewExecLoadInsts               2562674                       # Number of load instructions executed
system.cpu.iew.iewExecSquashedInsts               918                       # Number of squashed instructions skipped in execute
system.cpu.iew.exec_swp                             0                       # number of swp insts executed
system.cpu.iew.exec_nop                             0                       # number of nop insts executed
system.cpu.iew.exec_refs                      2565115                       # number of memory reference insts executed
system.cpu.iew.exec_branches                    92620                       # Number of branches executed
system.cpu.iew.exec_stores                       2441                       # Number of stores executed
system.cpu.iew.exec_rate                     1.660255                       # Inst execution rate
system.cpu.iew.wb_sent                        5697642                       # cumulative count of insts sent to commit
system.cpu.iew.wb_count                       5697378                       # cumulative count of insts written-back
system.cpu.iew.wb_producers                   5516528                       # num instructions producing a value
system.cpu.iew.wb_consumers                   5623461                       # num instructions consuming a value
system.cpu.iew.wb_rate                       1.660125                       # insts written-back per cycle
system.cpu.iew.wb_fanout                     0.980984                       # average fanout of values written-back
system.cpu.commit.commitSquashedInsts            7784                       # The number of squashed insts skipped by commit
system.cpu.commit.commitNonSpecStalls              11                       # The number of times commit has been forced to stall to communicate backwards
system.cpu.commit.branchMispredicts              1101                       # The number of times a branch was mispredicted
system.cpu.commit.committed_per_cycle::samples      3427567                       # Number of insts commited each cycle
system.cpu.commit.committed_per_cycle::mean     1.660992                       # Number of insts commited each cycle
system.cpu.commit.committed_per_cycle::stdev     0.580879                       # Number of insts commited each cycle
system.cpu.commit.committed_per_cycle::underflows            0      0.00%      0.00% # Number of insts commited each cycle
system.cpu.commit.committed_per_cycle::0       194239      5.67%      5.67% # Number of insts commited each cycle
system.cpu.commit.committed_per_cycle::1       773493     22.57%     28.23% # Number of insts commited each cycle
system.cpu.commit.committed_per_cycle::2      2459835     71.77%    100.00% # Number of insts commited each cycle
system.cpu.commit.committed_per_cycle::overflows            0      0.00%    100.00% # Number of insts commited each cycle
system.cpu.commit.committed_per_cycle::min_value            0                       # Number of insts commited each cycle
system.cpu.commit.committed_per_cycle::max_value            2                       # Number of insts commited each cycle
system.cpu.commit.committed_per_cycle::total      3427567                       # Number of insts commited each cycle
system.cpu.commit.committedInsts              2931648                       # Number of instructions committed
system.cpu.commit.committedOps                5693163                       # Number of ops (including micro ops) committed
system.cpu.commit.swp_count                         0                       # Number of s/w prefetches committed
system.cpu.commit.refs                        2564417                       # Number of memory references committed
system.cpu.commit.loads                       2562152                       # Number of loads committed
system.cpu.commit.membars                           0                       # Number of memory barriers committed
system.cpu.commit.branches                      92403                       # Number of branches committed
system.cpu.commit.vec_insts                         0                       # Number of committed Vector instructions.
system.cpu.commit.fp_insts                       2232                       # Number of committed floating point instructions.
system.cpu.commit.int_insts                   5691422                       # Number of committed integer instructions.
system.cpu.commit.function_calls                  191                       # Number of function calls committed.
system.cpu.commit.op_class_0::No_OpClass          130      0.00%      0.00% # Class of committed instruction
system.cpu.commit.op_class_0::IntAlu          3127412     54.93%     54.94% # Class of committed instruction
system.cpu.commit.op_class_0::IntMult              23      0.00%     54.94% # Class of committed instruction
system.cpu.commit.op_class_0::IntDiv               35      0.00%     54.94% # Class of committed instruction
system.cpu.commit.op_class_0::FloatAdd             19      0.00%     54.94% # Class of committed instruction
system.cpu.commit.op_class_0::FloatCmp              0      0.00%     54.94% # Class of committed instruction
system.cpu.commit.op_class_0::FloatCvt              0      0.00%     54.94% # Class of committed instruction
system.cpu.commit.op_class_0::FloatMult             0      0.00%     54.94% # Class of committed instruction
system.cpu.commit.op_class_0::FloatMultAcc            0      0.00%     54.94% # Class of committed instruction
system.cpu.commit.op_class_0::FloatDiv              0      0.00%     54.94% # Class of committed instruction
system.cpu.commit.op_class_0::FloatMisc             0      0.00%     54.94% # Class of committed instruction
system.cpu.commit.op_class_0::FloatSqrt             0      0.00%     54.94% # Class of committed instruction
system.cpu.commit.op_class_0::SimdAdd             374      0.01%     54.94% # Class of committed instruction
system.cpu.commit.op_class_0::SimdAddAcc            0      0.00%     54.94% # Class of committed instruction
system.cpu.commit.op_class_0::SimdAlu             110      0.00%     54.94% # Class of committed instruction
system.cpu.commit.op_class_0::SimdCmp               0      0.00%     54.94% # Class of committed instruction
system.cpu.commit.op_class_0::SimdCvt             156      0.00%     54.95% # Class of committed instruction
system.cpu.commit.op_class_0::SimdMisc            301      0.01%     54.95% # Class of committed instruction
system.cpu.commit.op_class_0::SimdMult              0      0.00%     54.95% # Class of committed instruction
system.cpu.commit.op_class_0::SimdMultAcc            0      0.00%     54.95% # Class of committed instruction
system.cpu.commit.op_class_0::SimdShift           186      0.00%     54.96% # Class of committed instruction
system.cpu.commit.op_class_0::SimdShiftAcc            0      0.00%     54.96% # Class of committed instruction
system.cpu.commit.op_class_0::SimdSqrt              0      0.00%     54.96% # Class of committed instruction
system.cpu.commit.op_class_0::SimdFloatAdd            0      0.00%     54.96% # Class of committed instruction
system.cpu.commit.op_class_0::SimdFloatAlu            0      0.00%     54.96% # Class of committed instruction
system.cpu.commit.op_class_0::SimdFloatCmp            0      0.00%     54.96% # Class of committed instruction
system.cpu.commit.op_class_0::SimdFloatCvt            0      0.00%     54.96% # Class of committed instruction
system.cpu.commit.op_class_0::SimdFloatDiv            0      0.00%     54.96% # Class of committed instruction
system.cpu.commit.op_class_0::SimdFloatMisc            0      0.00%     54.96% # Class of committed instruction
system.cpu.commit.op_class_0::SimdFloatMult            0      0.00%     54.96% # Class of committed instruction
system.cpu.commit.op_class_0::SimdFloatMultAcc            0      0.00%     54.96% # Class of committed instruction
system.cpu.commit.op_class_0::SimdFloatSqrt            0      0.00%     54.96% # Class of committed instruction
system.cpu.commit.op_class_0::SimdAes               0      0.00%     54.96% # Class of committed instruction
system.cpu.commit.op_class_0::SimdAesMix            0      0.00%     54.96% # Class of committed instruction
system.cpu.commit.op_class_0::SimdSha1Hash            0      0.00%     54.96% # Class of committed instruction
system.cpu.commit.op_class_0::SimdSha1Hash2            0      0.00%     54.96% # Class of committed instruction
system.cpu.commit.op_class_0::SimdSha256Hash            0      0.00%     54.96% # Class of committed instruction
system.cpu.commit.op_class_0::SimdSha256Hash2            0      0.00%     54.96% # Class of committed instruction
system.cpu.commit.op_class_0::SimdShaSigma2            0      0.00%     54.96% # Class of committed instruction
system.cpu.commit.op_class_0::SimdShaSigma3            0      0.00%     54.96% # Class of committed instruction
system.cpu.commit.op_class_0::MemRead         2562048     45.00%     99.96% # Class of committed instruction
system.cpu.commit.op_class_0::MemWrite           1826      0.03%     99.99% # Class of committed instruction
system.cpu.commit.op_class_0::FloatMemRead          104      0.00%     99.99% # Class of committed instruction
system.cpu.commit.op_class_0::FloatMemWrite          439      0.01%    100.00% # Class of committed instruction
system.cpu.commit.op_class_0::IprAccess             0      0.00%    100.00% # Class of committed instruction
system.cpu.commit.op_class_0::InstPrefetch            0      0.00%    100.00% # Class of committed instruction
system.cpu.commit.op_class_0::total           5693163                       # Class of committed instruction
system.cpu.commit.bw_lim_events               2459835                       # number cycles where commit BW limit reached
system.cpu.rob.rob_reads                      6668679                       # The number of ROB reads
system.cpu.rob.rob_writes                    11406178                       # The number of ROB writes
system.cpu.timesIdled                              43                       # Number of times that the entire CPU went into an idle state and unscheduled itself
system.cpu.idleCycles                              48                       # Total number of cycles that the CPU has spent unscheduled due to idling
system.cpu.committedInsts                     2931648                       # Number of Instructions Simulated
system.cpu.committedOps                       5693163                       # Number of Ops (including micro ops) Simulated
system.cpu.cpi                               1.170637                       # CPI: Cycles Per Instruction
system.cpu.cpi_total                         1.170637                       # CPI: Total CPI of All Threads
system.cpu.ipc                               0.854236                       # IPC: Instructions Per Cycle
system.cpu.ipc_total                         0.854236                       # IPC: Total IPC of All Threads
system.cpu.int_regfile_reads                 10846960                       # number of integer regfile reads
system.cpu.int_regfile_writes                 5600496                       # number of integer regfile writes
system.cpu.fp_regfile_reads                      4265                       # number of floating regfile reads
system.cpu.fp_regfile_writes                     1739                       # number of floating regfile writes
system.cpu.cc_regfile_reads                    463659                       # number of cc regfile reads
system.cpu.cc_regfile_writes                  5488397                       # number of cc regfile writes
system.cpu.misc_regfile_reads                 2751233                       # number of misc regfile reads
system.cpu.dcache.tags.pwrStateResidencyTicks::UNDEFINED   3431895000                       # Cumulative time (in ticks) in various power states
system.cpu.dcache.tags.tagsinuse           489.273652                       # Cycle average of tags in use
system.cpu.dcache.tags.total_refs             2564294                       # Total number of references to valid blocks.
system.cpu.dcache.tags.sampled_refs               510                       # Sample count of references to valid blocks.
system.cpu.dcache.tags.avg_refs           5028.027451                       # Average number of references to valid blocks.
system.cpu.dcache.tags.warmup_cycle             33000                       # Cycle when the warmup percentage was hit.
system.cpu.dcache.tags.occ_blocks::.cpu.data   489.273652                       # Average occupied blocks per requestor
system.cpu.dcache.tags.occ_percent::.cpu.data     0.477806                       # Average percentage of cache occupancy
system.cpu.dcache.tags.occ_percent::total     0.477806                       # Average percentage of cache occupancy
system.cpu.dcache.tags.occ_task_id_blocks::1024          503                       # Occupied blocks per task id
system.cpu.dcache.tags.age_task_id_blocks_1024::0           11                       # Occupied blocks per task id
system.cpu.dcache.tags.age_task_id_blocks_1024::3          492                       # Occupied blocks per task id
system.cpu.dcache.tags.occ_task_id_percent::1024     0.491211                       # Percentage of cache occupancy per task id
system.cpu.dcache.tags.tag_accesses           5129226                       # Number of tag accesses
system.cpu.dcache.tags.data_accesses          5129226                       # Number of data accesses
system.cpu.dcache.pwrStateResidencyTicks::UNDEFINED   3431895000                       # Cumulative time (in ticks) in various power states
system.cpu.dcache.ReadReq_hits::.cpu.data      2561909                       # number of ReadReq hits
system.cpu.dcache.ReadReq_hits::total         2561909                       # number of ReadReq hits
system.cpu.dcache.WriteReq_hits::.cpu.data         1875                       # number of WriteReq hits
system.cpu.dcache.WriteReq_hits::total           1875                       # number of WriteReq hits
system.cpu.dcache.demand_hits::.cpu.data      2563784                       # number of demand (read+write) hits
system.cpu.dcache.demand_hits::total          2563784                       # number of demand (read+write) hits
system.cpu.dcache.overall_hits::.cpu.data      2563784                       # number of overall hits
system.cpu.dcache.overall_hits::total         2563784                       # number of overall hits
system.cpu.dcache.ReadReq_misses::.cpu.data          183                       # number of ReadReq misses
system.cpu.dcache.ReadReq_misses::total           183                       # number of ReadReq misses
system.cpu.dcache.WriteReq_misses::.cpu.data          391                       # number of WriteReq misses
system.cpu.dcache.WriteReq_misses::total          391                       # number of WriteReq misses
system.cpu.dcache.demand_misses::.cpu.data          574                       # number of demand (read+write) misses
system.cpu.dcache.demand_misses::total            574                       # number of demand (read+write) misses
system.cpu.dcache.overall_misses::.cpu.data          574                       # number of overall misses
system.cpu.dcache.overall_misses::total           574                       # number of overall misses
system.cpu.dcache.ReadReq_miss_latency::.cpu.data      2671000                       # number of ReadReq miss cycles
system.cpu.dcache.ReadReq_miss_latency::total      2671000                       # number of ReadReq miss cycles
system.cpu.dcache.WriteReq_miss_latency::.cpu.data      5482000                       # number of WriteReq miss cycles
system.cpu.dcache.WriteReq_miss_latency::total      5482000                       # number of WriteReq miss cycles
system.cpu.dcache.demand_miss_latency::.cpu.data      8153000                       # number of demand (read+write) miss cycles
system.cpu.dcache.demand_miss_latency::total      8153000                       # number of demand (read+write) miss cycles
system.cpu.dcache.overall_miss_latency::.cpu.data      8153000                       # number of overall miss cycles
system.cpu.dcache.overall_miss_latency::total      8153000                       # number of overall miss cycles
system.cpu.dcache.ReadReq_accesses::.cpu.data      2562092                       # number of ReadReq accesses(hits+misses)
system.cpu.dcache.ReadReq_accesses::total      2562092                       # number of ReadReq accesses(hits+misses)
system.cpu.dcache.WriteReq_accesses::.cpu.data         2266                       # number of WriteReq accesses(hits+misses)
system.cpu.dcache.WriteReq_accesses::total         2266                       # number of WriteReq accesses(hits+misses)
system.cpu.dcache.demand_accesses::.cpu.data      2564358                       # number of demand (read+write) accesses
system.cpu.dcache.demand_accesses::total      2564358                       # number of demand (read+write) accesses
system.cpu.dcache.overall_accesses::.cpu.data      2564358                       # number of overall (read+write) accesses
system.cpu.dcache.overall_accesses::total      2564358                       # number of overall (read+write) accesses
system.cpu.dcache.ReadReq_miss_rate::.cpu.data     0.000071                       # miss rate for ReadReq accesses
system.cpu.dcache.ReadReq_miss_rate::total     0.000071                       # miss rate for ReadReq accesses
system.cpu.dcache.WriteReq_miss_rate::.cpu.data     0.172551                       # miss rate for WriteReq accesses
system.cpu.dcache.WriteReq_miss_rate::total     0.172551                       # miss rate for WriteReq accesses
system.cpu.dcache.demand_miss_rate::.cpu.data     0.000224                       # miss rate for demand accesses
system.cpu.dcache.demand_miss_rate::total     0.000224                       # miss rate for demand accesses
system.cpu.dcache.overall_miss_rate::.cpu.data     0.000224                       # miss rate for overall accesses
system.cpu.dcache.overall_miss_rate::total     0.000224                       # miss rate for overall accesses
system.cpu.dcache.ReadReq_avg_miss_latency::.cpu.data 14595.628415                       # average ReadReq miss latency
system.cpu.dcache.ReadReq_avg_miss_latency::total 14595.628415                       # average ReadReq miss latency
system.cpu.dcache.WriteReq_avg_miss_latency::.cpu.data 14020.460358                       # average WriteReq miss latency
system.cpu.dcache.WriteReq_avg_miss_latency::total 14020.460358                       # average WriteReq miss latency
system.cpu.dcache.demand_avg_miss_latency::.cpu.data 14203.832753                       # average overall miss latency
system.cpu.dcache.demand_avg_miss_latency::total 14203.832753                       # average overall miss latency
system.cpu.dcache.overall_avg_miss_latency::.cpu.data 14203.832753                       # average overall miss latency
system.cpu.dcache.overall_avg_miss_latency::total 14203.832753                       # average overall miss latency
system.cpu.dcache.blocked_cycles::no_mshrs            0                       # number of cycles access was blocked
system.cpu.dcache.blocked_cycles::no_targets            0                       # number of cycles access was blocked
system.cpu.dcache.blocked::no_mshrs                 0                       # number of cycles access was blocked
system.cpu.dcache.blocked::no_targets               0                       # number of cycles access was blocked
system.cpu.dcache.avg_blocked_cycles::no_mshrs          nan                       # average number of cycles each access was blocked
system.cpu.dcache.avg_blocked_cycles::no_targets          nan                       # average number of cycles each access was blocked
system.cpu.dcache.writebacks::.writebacks            2                       # number of writebacks
system.cpu.dcache.writebacks::total                 2                       # number of writebacks
system.cpu.dcache.ReadReq_mshr_hits::.cpu.data           63                       # number of ReadReq MSHR hits
system.cpu.dcache.ReadReq_mshr_hits::total           63                       # number of ReadReq MSHR hits
system.cpu.dcache.WriteReq_mshr_hits::.cpu.data            1                       # number of WriteReq MSHR hits
system.cpu.dcache.WriteReq_mshr_hits::total            1                       # number of WriteReq MSHR hits
system.cpu.dcache.demand_mshr_hits::.cpu.data           64                       # number of demand (read+write) MSHR hits
system.cpu.dcache.demand_mshr_hits::total           64                       # number of demand (read+write) MSHR hits
system.cpu.dcache.overall_mshr_hits::.cpu.data           64                       # number of overall MSHR hits
system.cpu.dcache.overall_mshr_hits::total           64                       # number of overall MSHR hits
system.cpu.dcache.ReadReq_mshr_misses::.cpu.data          120                       # number of ReadReq MSHR misses
system.cpu.dcache.ReadReq_mshr_misses::total          120                       # number of ReadReq MSHR misses
system.cpu.dcache.WriteReq_mshr_misses::.cpu.data          390                       # number of WriteReq MSHR misses
system.cpu.dcache.WriteReq_mshr_misses::total          390                       # number of WriteReq MSHR misses
system.cpu.dcache.demand_mshr_misses::.cpu.data          510                       # number of demand (read+write) MSHR misses
system.cpu.dcache.demand_mshr_misses::total          510                       # number of demand (read+write) MSHR misses
system.cpu.dcache.overall_mshr_misses::.cpu.data          510                       # number of overall MSHR misses
system.cpu.dcache.overall_mshr_misses::total          510                       # number of overall MSHR misses
system.cpu.dcache.ReadReq_mshr_miss_latency::.cpu.data      1485000                       # number of ReadReq MSHR miss cycles
system.cpu.dcache.ReadReq_mshr_miss_latency::total      1485000                       # number of ReadReq MSHR miss cycles
system.cpu.dcache.WriteReq_mshr_miss_latency::.cpu.data      4690000                       # number of WriteReq MSHR miss cycles
system.cpu.dcache.WriteReq_mshr_miss_latency::total      4690000                       # number of WriteReq MSHR miss cycles
system.cpu.dcache.demand_mshr_miss_latency::.cpu.data      6175000                       # number of demand (read+write) MSHR miss cycles
system.cpu.dcache.demand_mshr_miss_latency::total      6175000                       # number of demand (read+write) MSHR miss cycles
system.cpu.dcache.overall_mshr_miss_latency::.cpu.data      6175000                       # number of overall MSHR miss cycles
system.cpu.dcache.overall_mshr_miss_latency::total      6175000                       # number of overall MSHR miss cycles
system.cpu.dcache.ReadReq_mshr_miss_rate::.cpu.data     0.000047                       # mshr miss rate for ReadReq accesses
system.cpu.dcache.ReadReq_mshr_miss_rate::total     0.000047                       # mshr miss rate for ReadReq accesses
system.cpu.dcache.WriteReq_mshr_miss_rate::.cpu.data     0.172109                       # mshr miss rate for WriteReq accesses
system.cpu.dcache.WriteReq_mshr_miss_rate::total     0.172109                       # mshr miss rate for WriteReq accesses
system.cpu.dcache.demand_mshr_miss_rate::.cpu.data     0.000199                       # mshr miss rate for demand accesses
system.cpu.dcache.demand_mshr_miss_rate::total     0.000199                       # mshr miss rate for demand accesses
system.cpu.dcache.overall_mshr_miss_rate::.cpu.data     0.000199                       # mshr miss rate for overall accesses
system.cpu.dcache.overall_mshr_miss_rate::total     0.000199                       # mshr miss rate for overall accesses
system.cpu.dcache.ReadReq_avg_mshr_miss_latency::.cpu.data        12375                       # average ReadReq mshr miss latency
system.cpu.dcache.ReadReq_avg_mshr_miss_latency::total        12375                       # average ReadReq mshr miss latency
system.cpu.dcache.WriteReq_avg_mshr_miss_latency::.cpu.data 12025.641026                       # average WriteReq mshr miss latency
system.cpu.dcache.WriteReq_avg_mshr_miss_latency::total 12025.641026                       # average WriteReq mshr miss latency
system.cpu.dcache.demand_avg_mshr_miss_latency::.cpu.data 12107.843137                       # average overall mshr miss latency
system.cpu.dcache.demand_avg_mshr_miss_latency::total 12107.843137                       # average overall mshr miss latency
system.cpu.dcache.overall_avg_mshr_miss_latency::.cpu.data 12107.843137                       # average overall mshr miss latency
system.cpu.dcache.overall_avg_mshr_miss_latency::total 12107.843137                       # average overall mshr miss latency
system.cpu.dcache.replacements                      7                       # number of replacements
system.cpu.icache.tags.pwrStateResidencyTicks::UNDEFINED   3431895000                       # Cumulative time (in ticks) in various power states
system.cpu.icache.tags.tagsinuse           253.480886                       # Cycle average of tags in use
system.cpu.icache.tags.total_refs              322530                       # Total number of references to valid blocks.
system.cpu.icache.tags.sampled_refs               684                       # Sample count of references to valid blocks.
system.cpu.icache.tags.avg_refs            471.535088                       # Average number of references to valid blocks.
system.cpu.icache.tags.warmup_cycle             12000                       # Cycle when the warmup percentage was hit.
system.cpu.icache.tags.occ_blocks::.cpu.inst   253.480886                       # Average occupied blocks per requestor
system.cpu.icache.tags.occ_percent::.cpu.inst     0.990160                       # Average percentage of cache occupancy
system.cpu.icache.tags.occ_percent::total     0.990160                       # Average percentage of cache occupancy
system.cpu.icache.tags.occ_task_id_blocks::1024          254                       # Occupied blocks per task id
system.cpu.icache.tags.age_task_id_blocks_1024::0           83                       # Occupied blocks per task id
system.cpu.icache.tags.age_task_id_blocks_1024::3          171                       # Occupied blocks per task id
system.cpu.icache.tags.occ_task_id_percent::1024     0.992188                       # Percentage of cache occupancy per task id
system.cpu.icache.tags.tag_accesses            645838                       # Number of tag accesses
system.cpu.icache.tags.data_accesses           645838                       # Number of data accesses
system.cpu.icache.pwrStateResidencyTicks::UNDEFINED   3431895000                       # Cumulative time (in ticks) in various power states
system.cpu.icache.ReadReq_hits::.cpu.inst       321846                       # number of ReadReq hits
system.cpu.icache.ReadReq_hits::total          321846                       # number of ReadReq hits
system.cpu.icache.demand_hits::.cpu.inst       321846                       # number of demand (read+write) hits
system.cpu.icache.demand_hits::total           321846                       # number of demand (read+write) hits
system.cpu.icache.overall_hits::.cpu.inst       321846                       # number of overall hits
system.cpu.icache.overall_hits::total          321846                       # number of overall hits
system.cpu.icache.ReadReq_misses::.cpu.inst          731                       # number of ReadReq misses
system.cpu.icache.ReadReq_misses::total           731                       # number of ReadReq misses
system.cpu.icache.demand_misses::.cpu.inst          731                       # number of demand (read+write) misses
system.cpu.icache.demand_misses::total            731                       # number of demand (read+write) misses
system.cpu.icache.overall_misses::.cpu.inst          731                       # number of overall misses
system.cpu.icache.overall_misses::total           731                       # number of overall misses
system.cpu.icache.ReadReq_miss_latency::.cpu.inst      9897000                       # number of ReadReq miss cycles
system.cpu.icache.ReadReq_miss_latency::total      9897000                       # number of ReadReq miss cycles
system.cpu.icache.demand_miss_latency::.cpu.inst      9897000                       # number of demand (read+write) miss cycles
system.cpu.icache.demand_miss_latency::total      9897000                       # number of demand (read+write) miss cycles
system.cpu.icache.overall_miss_latency::.cpu.inst      9897000                       # number of overall miss cycles
system.cpu.icache.overall_miss_latency::total      9897000                       # number of overall miss cycles
system.cpu.icache.ReadReq_accesses::.cpu.inst       322577                       # number of ReadReq accesses(hits+misses)
system.cpu.icache.ReadReq_accesses::total       322577                       # number of ReadReq accesses(hits+misses)
system.cpu.icache.demand_accesses::.cpu.inst       322577                       # number of demand (read+write) accesses
system.cpu.icache.demand_accesses::total       322577                       # number of demand (read+write) accesses
system.cpu.icache.overall_accesses::.cpu.inst       322577                       # number of overall (read+write) accesses
system.cpu.icache.overall_accesses::total       322577                       # number of overall (read+write) accesses
system.cpu.icache.ReadReq_miss_rate::.cpu.inst     0.002266                       # miss rate for ReadReq accesses
system.cpu.icache.ReadReq_miss_rate::total     0.002266                       # miss rate for ReadReq accesses
system.cpu.icache.demand_miss_rate::.cpu.inst     0.002266                       # miss rate for demand accesses
system.cpu.icache.demand_miss_rate::total     0.002266                       # miss rate for demand accesses
system.cpu.icache.overall_miss_rate::.cpu.inst     0.002266                       # miss rate for overall accesses
system.cpu.icache.overall_miss_rate::total     0.002266                       # miss rate for overall accesses
system.cpu.icache.ReadReq_avg_miss_latency::.cpu.inst 13538.987688                       # average ReadReq miss latency
system.cpu.icache.ReadReq_avg_miss_latency::total 13538.987688                       # average ReadReq miss latency
system.cpu.icache.demand_avg_miss_latency::.cpu.inst 13538.987688                       # average overall miss latency
system.cpu.icache.demand_avg_miss_latency::total 13538.987688                       # average overall miss latency
system.cpu.icache.overall_avg_miss_latency::.cpu.inst 13538.987688                       # average overall miss latency
system.cpu.icache.overall_avg_miss_latency::total 13538.987688                       # average overall miss latency
system.cpu.icache.blocked_cycles::no_mshrs            0                       # number of cycles access was blocked
system.cpu.icache.blocked_cycles::no_targets            0                       # number of cycles access was blocked
system.cpu.icache.blocked::no_mshrs                 0                       # number of cycles access was blocked
system.cpu.icache.blocked::no_targets               0                       # number of cycles access was blocked
system.cpu.icache.avg_blocked_cycles::no_mshrs          nan                       # average number of cycles each access was blocked
system.cpu.icache.avg_blocked_cycles::no_targets          nan                       # average number of cycles each access was blocked
system.cpu.icache.ReadReq_mshr_hits::.cpu.inst           47                       # number of ReadReq MSHR hits
system.cpu.icache.ReadReq_mshr_hits::total           47                       # number of ReadReq MSHR hits
system.cpu.icache.demand_mshr_hits::.cpu.inst           47                       # number of demand (read+write) MSHR hits
system.cpu.icache.demand_mshr_hits::total           47                       # number of demand (read+write) MSHR hits
system.cpu.icache.overall_mshr_hits::.cpu.inst           47                       # number of overall MSHR hits
system.cpu.icache.overall_mshr_hits::total           47                       # number of overall MSHR hits
system.cpu.icache.ReadReq_mshr_misses::.cpu.inst          684                       # number of ReadReq MSHR misses
system.cpu.icache.ReadReq_mshr_misses::total          684                       # number of ReadReq MSHR misses
system.cpu.icache.demand_mshr_misses::.cpu.inst          684                       # number of demand (read+write) MSHR misses
system.cpu.icache.demand_mshr_misses::total          684                       # number of demand (read+write) MSHR misses
system.cpu.icache.overall_mshr_misses::.cpu.inst          684                       # number of overall MSHR misses
system.cpu.icache.overall_mshr_misses::total          684                       # number of overall MSHR misses
system.cpu.icache.ReadReq_mshr_miss_latency::.cpu.inst      8262000                       # number of ReadReq MSHR miss cycles
system.cpu.icache.ReadReq_mshr_miss_latency::total      8262000                       # number of ReadReq MSHR miss cycles
system.cpu.icache.demand_mshr_miss_latency::.cpu.inst      8262000                       # number of demand (read+write) MSHR miss cycles
system.cpu.icache.demand_mshr_miss_latency::total      8262000                       # number of demand (read+write) MSHR miss cycles
system.cpu.icache.overall_mshr_miss_latency::.cpu.inst      8262000                       # number of overall MSHR miss cycles
system.cpu.icache.overall_mshr_miss_latency::total      8262000                       # number of overall MSHR miss cycles
system.cpu.icache.ReadReq_mshr_miss_rate::.cpu.inst     0.002120                       # mshr miss rate for ReadReq accesses
system.cpu.icache.ReadReq_mshr_miss_rate::total     0.002120                       # mshr miss rate for ReadReq accesses
system.cpu.icache.demand_mshr_miss_rate::.cpu.inst     0.002120                       # mshr miss rate for demand accesses
system.cpu.icache.demand_mshr_miss_rate::total     0.002120                       # mshr miss rate for demand accesses
system.cpu.icache.overall_mshr_miss_rate::.cpu.inst     0.002120                       # mshr miss rate for overall accesses
system.cpu.icache.overall_mshr_miss_rate::total     0.002120                       # mshr miss rate for overall accesses
system.cpu.icache.ReadReq_avg_mshr_miss_latency::.cpu.inst 12078.947368                       # average ReadReq mshr miss latency
system.cpu.icache.ReadReq_avg_mshr_miss_latency::total 12078.947368                       # average ReadReq mshr miss latency
system.cpu.icache.demand_avg_mshr_miss_latency::.cpu.inst 12078.947368                       # average overall mshr miss latency
system.cpu.icache.demand_avg_mshr_miss_latency::total 12078.947368                       # average overall mshr miss latency
system.cpu.icache.overall_avg_mshr_miss_latency::.cpu.inst 12078.947368                       # average overall mshr miss latency
system.cpu.icache.overall_avg_mshr_miss_latency::total 12078.947368                       # average overall mshr miss latency
system.cpu.icache.replacements                    430                       # number of replacements
system.interrupt_xbar.snoop_filter.tot_requests            0                       # Total number of requests made to the snoop filter.
system.interrupt_xbar.snoop_filter.hit_single_requests            0                       # Number of requests hitting in the snoop filter with a single holder of the requested data.
system.interrupt_xbar.snoop_filter.hit_multi_requests            0                       # Number of requests hitting in the snoop filter with multiple (>1) holders of the requested data.
system.interrupt_xbar.snoop_filter.tot_snoops            0                       # Total number of snoops made to the snoop filter.
system.interrupt_xbar.snoop_filter.hit_single_snoops            0                       # Number of snoops hitting in the snoop filter with a single holder of the requested data.
system.interrupt_xbar.snoop_filter.hit_multi_snoops            0                       # Number of snoops hitting in the snoop filter with multiple (>1) holders of the requested data.
system.interrupt_xbar.pwrStateResidencyTicks::UNDEFINED   3431895000                       # Cumulative time (in ticks) in various power states
system.interrupt_xbar.snoops                        0                       # Total snoops (count)
system.interrupt_xbar.snoopTraffic                  0                       # Total snoop traffic (bytes)
system.interrupt_xbar.snoop_fanout::samples            0                       # Request fanout histogram
system.interrupt_xbar.snoop_fanout::mean          nan                       # Request fanout histogram
system.interrupt_xbar.snoop_fanout::stdev          nan                       # Request fanout histogram
system.interrupt_xbar.snoop_fanout::underflows            0                       # Request fanout histogram
system.interrupt_xbar.snoop_fanout::0               0                       # Request fanout histogram
system.interrupt_xbar.snoop_fanout::overflows            0                       # Request fanout histogram
system.interrupt_xbar.snoop_fanout::min_value            0                       # Request fanout histogram
system.interrupt_xbar.snoop_fanout::max_value            0                       # Request fanout histogram
system.interrupt_xbar.snoop_fanout::total            0                       # Request fanout histogram
system.membus.snoop_filter.tot_requests          1631                       # Total number of requests made to the snoop filter.
system.membus.snoop_filter.hit_single_requests          437                       # Number of requests hitting in the snoop filter with a single holder of the requested data.
system.membus.snoop_filter.hit_multi_requests            0                       # Number of requests hitting in the snoop filter with multiple (>1) holders of the requested data.
system.membus.snoop_filter.tot_snoops               0                       # Total number of snoops made to the snoop filter.
system.membus.snoop_filter.hit_single_snoops            0                       # Number of snoops hitting in the snoop filter with a single holder of the requested data.
system.membus.snoop_filter.hit_multi_snoops            0                       # Number of snoops hitting in the snoop filter with multiple (>1) holders of the requested data.
system.membus.pwrStateResidencyTicks::UNDEFINED   3431895000                       # Cumulative time (in ticks) in various power states
system.membus.trans_dist::ReadResp                804                       # Transaction distribution
system.membus.trans_dist::WritebackDirty            2                       # Transaction distribution
system.membus.trans_dist::CleanEvict              435                       # Transaction distribution
system.membus.trans_dist::ReadExReq               390                       # Transaction distribution
system.membus.trans_dist::ReadExResp              390                       # Transaction distribution
system.membus.trans_dist::ReadSharedReq           804                       # Transaction distribution
system.membus.pkt_count_system.cpu.icache.mem_side::system.mem_ctrl.port         1798                       # Packet count per connected master and slave (bytes)
system.membus.pkt_count_system.cpu.dcache.mem_side::system.mem_ctrl.port         1027                       # Packet count per connected master and slave (bytes)
system.membus.pkt_count::total                   2825                       # Packet count per connected master and slave (bytes)
system.membus.pkt_size_system.cpu.icache.mem_side::system.mem_ctrl.port        43776                       # Cumulative packet size per connected master and slave (bytes)
system.membus.pkt_size_system.cpu.dcache.mem_side::system.mem_ctrl.port        32768                       # Cumulative packet size per connected master and slave (bytes)
system.membus.pkt_size::total                   76544                       # Cumulative packet size per connected master and slave (bytes)
system.membus.snoops                                0                       # Total snoops (count)
system.membus.snoopTraffic                          0                       # Total snoop traffic (bytes)
system.membus.snoop_fanout::samples              1194                       # Request fanout histogram
system.membus.snoop_fanout::mean                    0                       # Request fanout histogram
system.membus.snoop_fanout::stdev                   0                       # Request fanout histogram
system.membus.snoop_fanout::underflows              0      0.00%      0.00% # Request fanout histogram
system.membus.snoop_fanout::0                    1194    100.00%    100.00% # Request fanout histogram
system.membus.snoop_fanout::1                       0      0.00%    100.00% # Request fanout histogram
system.membus.snoop_fanout::2                       0      0.00%    100.00% # Request fanout histogram
system.membus.snoop_fanout::overflows               0      0.00%    100.00% # Request fanout histogram
system.membus.snoop_fanout::min_value               0                       # Request fanout histogram
system.membus.snoop_fanout::max_value               0                       # Request fanout histogram
system.membus.snoop_fanout::total                1194                       # Request fanout histogram
system.membus.reqLayer0.occupancy             1639000                       # Layer occupancy (ticks)
system.membus.reqLayer0.utilization               0.0                       # Layer utilization (%)
system.membus.respLayer0.occupancy            3420000                       # Layer occupancy (ticks)
system.membus.respLayer0.utilization              0.1                       # Layer utilization (%)
system.membus.respLayer1.occupancy            2550000                       # Layer occupancy (ticks)
system.membus.respLayer1.utilization              0.1                       # Layer utilization (%)

---------- End Simulation Statistics   ----------
