gem5 Simulator System.  http://gem5.org
gem5 is copyrighted software; use the --copyright option for details.

gem5 compiled Mar 13 2019 21:26:43
gem5 started Mar 13 2019 21:28:04
gem5 executing on summit, pid 26846
command line: build/X86/gem5.opt -re --outdir=../results/gem5/micro/dependency_chain6/O3_Big ../configs/run.py O3_Big Inf ../benchmarks/micro/dependency_chain6/dependency_chain6 100000

Global frequency set at 1000000000000 ticks per second
0.818399 ms
