
---------- Begin Simulation Statistics ----------
sim_seconds                                  0.348021                       # Number of seconds simulated
sim_ticks                                348021292000                       # Number of ticks simulated
final_tick                               348021292000                       # Number of ticks from beginning of simulation (restored from checkpoints and never reset)
sim_freq                                 1000000000000                       # Frequency of simulated ticks
host_inst_rate                                  64220                       # Simulator instruction rate (inst/s)
host_op_rate                                    71499                       # Simulator op (including micro ops) rate (op/s)
host_tick_rate                              966676661                       # Simulator tick rate (ticks/s)
host_mem_usage                                 691716                       # Number of bytes of host memory used
host_seconds                                   360.02                       # Real time elapsed on the host
sim_insts                                    23120435                       # Number of instructions simulated
sim_ops                                      25740829                       # Number of ops (including micro ops) simulated
system.clk_domain.voltage_domain.voltage            1                       # Voltage in Volts
system.clk_domain.clock                          1000                       # Clock period in ticks
system.mem_ctrl.pwrStateResidencyTicks::UNDEFINED 348021292000                       # Cumulative time (in ticks) in various power states
system.mem_ctrl.bytes_read::.cpu.inst           54976                       # Number of bytes read from this memory
system.mem_ctrl.bytes_read::.cpu.data      1310739520                       # Number of bytes read from this memory
system.mem_ctrl.bytes_read::total          1310794496                       # Number of bytes read from this memory
system.mem_ctrl.bytes_inst_read::.cpu.inst        54976                       # Number of instructions bytes read from this memory
system.mem_ctrl.bytes_inst_read::total          54976                       # Number of instructions bytes read from this memory
system.mem_ctrl.bytes_written::.writebacks   1310668160                       # Number of bytes written to this memory
system.mem_ctrl.bytes_written::total       1310668160                       # Number of bytes written to this memory
system.mem_ctrl.num_reads::.cpu.inst              859                       # Number of read requests responded to by this memory
system.mem_ctrl.num_reads::.cpu.data         20480305                       # Number of read requests responded to by this memory
system.mem_ctrl.num_reads::total             20481164                       # Number of read requests responded to by this memory
system.mem_ctrl.num_writes::.writebacks      20479190                       # Number of write requests responded to by this memory
system.mem_ctrl.num_writes::total            20479190                       # Number of write requests responded to by this memory
system.mem_ctrl.bw_read::.cpu.inst             157967                       # Total read bandwidth from this memory (bytes/s)
system.mem_ctrl.bw_read::.cpu.data         3766262439                       # Total read bandwidth from this memory (bytes/s)
system.mem_ctrl.bw_read::total             3766420406                       # Total read bandwidth from this memory (bytes/s)
system.mem_ctrl.bw_inst_read::.cpu.inst        157967                       # Instruction read bandwidth from this memory (bytes/s)
system.mem_ctrl.bw_inst_read::total            157967                       # Instruction read bandwidth from this memory (bytes/s)
system.mem_ctrl.bw_write::.writebacks      3766057394                       # Write bandwidth from this memory (bytes/s)
system.mem_ctrl.bw_write::total            3766057394                       # Write bandwidth from this memory (bytes/s)
system.mem_ctrl.bw_total::.writebacks      3766057394                       # Total bandwidth to/from this memory (bytes/s)
system.mem_ctrl.bw_total::.cpu.inst            157967                       # Total bandwidth to/from this memory (bytes/s)
system.mem_ctrl.bw_total::.cpu.data        3766262439                       # Total bandwidth to/from this memory (bytes/s)
system.mem_ctrl.bw_total::total            7532477800                       # Total bandwidth to/from this memory (bytes/s)
system.pwrStateResidencyTicks::UNDEFINED 348021292000                       # Cumulative time (in ticks) in various power states
system.cpu.branchPred.lookups                  658082                       # Number of BP lookups
system.cpu.branchPred.condPredicted            658082                       # Number of conditional branches predicted
system.cpu.branchPred.condIncorrect              1402                       # Number of conditional branches incorrect
system.cpu.branchPred.BTBLookups               641778                       # Number of BTB lookups
system.cpu.branchPred.BTBHits                       0                       # Number of BTB hits
system.cpu.branchPred.BTBCorrect                    0                       # Number of correct BTB predictions (this stat may not work properly.
system.cpu.branchPred.BTBHitPct              0.000000                       # BTB Hit Percentage
system.cpu.branchPred.usedRAS                     242                       # Number of times the RAS was used to get a target.
system.cpu.branchPred.RASInCorrect                 81                       # Number of incorrect RAS predictions.
system.cpu.branchPred.indirectLookups          641778                       # Number of indirect predictor lookups.
system.cpu.branchPred.indirectHits             640443                       # Number of indirect target hits.
system.cpu.branchPred.indirectMisses             1335                       # Number of indirect misses.
system.cpu.branchPredindirectMispredicted          417                       # Number of mispredicted indirect branches.
system.cpu.branchPred.tageLongestMatchProviderCorrect       610172                       # Number of times TAGE Longest Match is the provider and the prediction is correct
system.cpu.branchPred.tageAltMatchProviderCorrect            0                       # Number of times TAGE Alt Match is the provider and the prediction is correct
system.cpu.branchPred.bimodalAltMatchProviderCorrect            0                       # Number of times TAGE Alt Match is the bimodal and it is the provider and the prediction is correct
system.cpu.branchPred.tageBimodalProviderCorrect        41244                       # Number of times there are no hits on the TAGE tables and the bimodal prediction is correct
system.cpu.branchPred.tageLongestMatchProviderWrong           16                       # Number of times TAGE Longest Match is the provider and the prediction is wrong
system.cpu.branchPred.tageAltMatchProviderWrong            0                       # Number of times TAGE Alt Match is the provider and the prediction is wrong
system.cpu.branchPred.bimodalAltMatchProviderWrong            1                       # Number of times TAGE Alt Match is the bimodal and it is the provider and the prediction is wrong
system.cpu.branchPred.tageBimodalProviderWrong          622                       # Number of times there are no hits on the TAGE tables and the bimodal prediction is wrong
system.cpu.branchPred.tageAltMatchProviderWouldHaveHit            7                       # Number of times TAGE Longest Match is the provider, the prediction is wrong and Alt Match prediction was correct
system.cpu.branchPred.tageLongestMatchProviderWouldHaveHit            1                       # Number of times TAGE Alt Match is the provider, the prediction is wrong and Longest Match prediction was correct
system.cpu.branchPred.tageLongestMatchProvider::0            0                       # TAGE provider for longest match
system.cpu.branchPred.tageLongestMatchProvider::1        10227                       # TAGE provider for longest match
system.cpu.branchPred.tageLongestMatchProvider::2       170070                       # TAGE provider for longest match
system.cpu.branchPred.tageLongestMatchProvider::3        20040                       # TAGE provider for longest match
system.cpu.branchPred.tageLongestMatchProvider::4        10007                       # TAGE provider for longest match
system.cpu.branchPred.tageLongestMatchProvider::5       139972                       # TAGE provider for longest match
system.cpu.branchPred.tageLongestMatchProvider::6       239883                       # TAGE provider for longest match
system.cpu.branchPred.tageLongestMatchProvider::7         9994                       # TAGE provider for longest match
system.cpu.branchPred.tageLongestMatchProvider::8            0                       # TAGE provider for longest match
system.cpu.branchPred.tageLongestMatchProvider::9         9995                       # TAGE provider for longest match
system.cpu.branchPred.tageLongestMatchProvider::10            0                       # TAGE provider for longest match
system.cpu.branchPred.tageLongestMatchProvider::11            0                       # TAGE provider for longest match
system.cpu.branchPred.tageLongestMatchProvider::12            0                       # TAGE provider for longest match
system.cpu.branchPred.tageAltMatchProvider::0        20346                       # TAGE provider for alt match
system.cpu.branchPred.tageAltMatchProvider::1       180006                       # TAGE provider for alt match
system.cpu.branchPred.tageAltMatchProvider::2       149966                       # TAGE provider for alt match
system.cpu.branchPred.tageAltMatchProvider::3            0                       # TAGE provider for alt match
system.cpu.branchPred.tageAltMatchProvider::4            0                       # TAGE provider for alt match
system.cpu.branchPred.tageAltMatchProvider::5       239882                       # TAGE provider for alt match
system.cpu.branchPred.tageAltMatchProvider::6        19988                       # TAGE provider for alt match
system.cpu.branchPred.tageAltMatchProvider::7            0                       # TAGE provider for alt match
system.cpu.branchPred.tageAltMatchProvider::8            0                       # TAGE provider for alt match
system.cpu.branchPred.tageAltMatchProvider::9            0                       # TAGE provider for alt match
system.cpu.branchPred.tageAltMatchProvider::10            0                       # TAGE provider for alt match
system.cpu.branchPred.tageAltMatchProvider::11            0                       # TAGE provider for alt match
system.cpu.branchPred.tageAltMatchProvider::12            0                       # TAGE provider for alt match
system.cpu.branchPred.loopPredictorCorrect           57                       # Number of times the loop predictor is the provider and the prediction is correct
system.cpu.branchPred.loopPredictorWrong            1                       # Number of times the loop predictor is the provider and the prediction is wrong
system.cpu.dtb.walker.pwrStateResidencyTicks::UNDEFINED 348021292000                       # Cumulative time (in ticks) in various power states
system.cpu.dtb.rdAccesses                       14070                       # TLB accesses on read requests
system.cpu.dtb.wrAccesses                    20492929                       # TLB accesses on write requests
system.cpu.dtb.rdMisses                           121                       # TLB misses on read requests
system.cpu.dtb.wrMisses                            89                       # TLB misses on write requests
system.cpu.apic_clk_domain.clock                16000                       # Clock period in ticks
system.cpu.interrupts.pwrStateResidencyTicks::UNDEFINED 348021292000                       # Cumulative time (in ticks) in various power states
system.cpu.itb.walker.pwrStateResidencyTicks::UNDEFINED 348021292000                       # Cumulative time (in ticks) in various power states
system.cpu.itb.rdAccesses                           0                       # TLB accesses on read requests
system.cpu.itb.wrAccesses                     3204743                       # TLB accesses on write requests
system.cpu.itb.rdMisses                             0                       # TLB misses on read requests
system.cpu.itb.wrMisses                           103                       # TLB misses on write requests
system.cpu.workload.numSyscalls                    12                       # Number of system calls
system.cpu.pwrStateResidencyTicks::ON    348021292000                       # Cumulative time (in ticks) in various power states
system.cpu.numCycles                        348021293                       # number of cpu cycles simulated
system.cpu.numWorkItemsStarted                      0                       # number of work items this cpu started
system.cpu.numWorkItemsCompleted                    0                       # number of work items this cpu completed
system.cpu.fetch.icacheStallCycles            3212596                       # Number of cycles fetch is stalled on an Icache miss
system.cpu.fetch.Insts                       23149455                       # Number of instructions fetch has processed
system.cpu.fetch.Branches                      658082                       # Number of branches that fetch encountered
system.cpu.fetch.predictedBranches             640685                       # Number of branches that fetch has predicted taken
system.cpu.fetch.Cycles                     344806954                       # Number of cycles fetch has run and was not squashing or blocked
system.cpu.fetch.SquashCycles                    2850                       # Number of cycles fetch has spent squashing
system.cpu.fetch.MiscStallCycles                   30                       # Number of cycles fetch has spent waiting on interrupts, or bad addresses, or out of MSHRs
system.cpu.fetch.PendingTrapStallCycles           235                       # Number of stall cycles due to pending traps
system.cpu.fetch.PendingQuiesceStallCycles           12                       # Number of stall cycles due to pending quiesce instructions
system.cpu.fetch.CacheLines                   3204690                       # Number of cache lines fetched
system.cpu.fetch.IcacheSquashes                   665                       # Number of outstanding Icache misses that were squashed
system.cpu.fetch.rateDist::samples          348021252                       # Number of instructions fetched each cycle (Total)
system.cpu.fetch.rateDist::mean              0.074123                       # Number of instructions fetched each cycle (Total)
system.cpu.fetch.rateDist::stdev             0.661969                       # Number of instructions fetched each cycle (Total)
system.cpu.fetch.rateDist::underflows               0      0.00%      0.00% # Number of instructions fetched each cycle (Total)
system.cpu.fetch.rateDist::0                342229957     98.34%     98.34% # Number of instructions fetched each cycle (Total)
system.cpu.fetch.rateDist::1                  1285928      0.37%     98.71% # Number of instructions fetched each cycle (Total)
system.cpu.fetch.rateDist::2                   505320      0.15%     98.85% # Number of instructions fetched each cycle (Total)
system.cpu.fetch.rateDist::3                   245512      0.07%     98.92% # Number of instructions fetched each cycle (Total)
system.cpu.fetch.rateDist::4                  1165245      0.33%     99.26% # Number of instructions fetched each cycle (Total)
system.cpu.fetch.rateDist::5                   535186      0.15%     99.41% # Number of instructions fetched each cycle (Total)
system.cpu.fetch.rateDist::6                   255602      0.07%     99.48% # Number of instructions fetched each cycle (Total)
system.cpu.fetch.rateDist::7                   495328      0.14%     99.63% # Number of instructions fetched each cycle (Total)
system.cpu.fetch.rateDist::8                  1303174      0.37%    100.00% # Number of instructions fetched each cycle (Total)
system.cpu.fetch.rateDist::overflows                0      0.00%    100.00% # Number of instructions fetched each cycle (Total)
system.cpu.fetch.rateDist::min_value                0                       # Number of instructions fetched each cycle (Total)
system.cpu.fetch.rateDist::max_value                8                       # Number of instructions fetched each cycle (Total)
system.cpu.fetch.rateDist::total            348021252                       # Number of instructions fetched each cycle (Total)
system.cpu.fetch.branchRate                  0.001891                       # Number of branch fetches per cycle
system.cpu.fetch.rate                        0.066517                       # Number of inst fetches per cycle
system.cpu.decode.IdleCycles                  1190037                       # Number of cycles decode is idle
system.cpu.decode.BlockedCycles             343605830                       # Number of cycles decode is blocked
system.cpu.decode.RunCycles                      8285                       # Number of cycles decode is running
system.cpu.decode.UnblockCycles               3215675                       # Number of cycles decode is unblocking
system.cpu.decode.SquashCycles                   1425                       # Number of cycles decode is squashing
system.cpu.decode.DecodedInsts               25784263                       # Number of instructions handled by decode
system.cpu.rename.SquashCycles                   1425                       # Number of cycles rename is squashing
system.cpu.rename.IdleCycles                  2045767                       # Number of cycles rename is idle
system.cpu.rename.BlockCycles               112902863                       # Number of cycles rename is blocking
system.cpu.rename.serializeStallCycles           3768                       # count of cycles rename stalled for serializing inst
system.cpu.rename.RunCycles                   2048322                       # Number of cycles rename is running
system.cpu.rename.UnblockCycles             231019107                       # Number of cycles rename is unblocking
system.cpu.rename.RenamedInsts               25779349                       # Number of instructions processed by rename
system.cpu.rename.ROBFullEvents                    12                       # Number of times rename has blocked due to ROB full
system.cpu.rename.SQFullEvents              230594187                       # Number of times rename has blocked due to SQ full
system.cpu.rename.RenamedOperands             8542788                       # Number of destination operands rename has renamed
system.cpu.rename.RenameLookups              91953519                       # Number of register rename lookups that rename has made
system.cpu.rename.int_rename_lookups         66843390                       # Number of integer rename lookups
system.cpu.rename.fp_rename_lookups              4821                       # Number of floating rename lookups
system.cpu.rename.CommittedMaps               8502701                       # Number of HB maps that are committed
system.cpu.rename.UndoneMaps                    40087                       # Number of HB maps that are undone due to squashing
system.cpu.rename.serializingInsts                 40                       # count of serializing insts renamed
system.cpu.rename.tempSerializingInsts             37                       # count of temporary serializing insts renamed
system.cpu.rename.skidInsts                  22211465                       # count of insts added to the skid buffer
system.cpu.memDep0.insertedLoads                15599                       # Number of loads inserted to the mem dependence unit.
system.cpu.memDep0.insertedStores            20494449                       # Number of stores inserted to the mem dependence unit.
system.cpu.memDep0.conflictingLoads               137                       # Number of conflicting loads.
system.cpu.memDep0.conflictingStores              145                       # Number of conflicting stores.
system.cpu.iq.iqInstsAdded                   25769748                       # Number of instructions added to the IQ (excludes non-spec)
system.cpu.iq.iqNonSpecInstsAdded                 190                       # Number of non-speculative instructions added to the IQ
system.cpu.iq.iqInstsIssued                  25760710                       # Number of instructions issued
system.cpu.iq.iqSquashedInstsIssued               189                       # Number of squashed instructions issued
system.cpu.iq.iqSquashedInstsExamined           29108                       # Number of squashed instructions iterated over during squash; mainly for profiling
system.cpu.iq.iqSquashedOperandsExamined        40931                       # Number of squashed operands that are examined and possibly removed from graph
system.cpu.iq.iqSquashedNonSpecRemoved            166                       # Number of squashed non-spec instructions that were removed
system.cpu.iq.issued_per_cycle::samples     348021252                       # Number of insts issued each cycle
system.cpu.iq.issued_per_cycle::mean         0.074021                       # Number of insts issued each cycle
system.cpu.iq.issued_per_cycle::stdev        0.324628                       # Number of insts issued each cycle
system.cpu.iq.issued_per_cycle::underflows            0      0.00%      0.00% # Number of insts issued each cycle
system.cpu.iq.issued_per_cycle::0           325561749     93.55%     93.55% # Number of insts issued each cycle
system.cpu.iq.issued_per_cycle::1            20921212      6.01%     99.56% # Number of insts issued each cycle
system.cpu.iq.issued_per_cycle::2              666588      0.19%     99.75% # Number of insts issued each cycle
system.cpu.iq.issued_per_cycle::3              420933      0.12%     99.87% # Number of insts issued each cycle
system.cpu.iq.issued_per_cycle::4               21392      0.01%     99.88% # Number of insts issued each cycle
system.cpu.iq.issued_per_cycle::5              421271      0.12%    100.00% # Number of insts issued each cycle
system.cpu.iq.issued_per_cycle::6                6242      0.00%    100.00% # Number of insts issued each cycle
system.cpu.iq.issued_per_cycle::7                 772      0.00%    100.00% # Number of insts issued each cycle
system.cpu.iq.issued_per_cycle::8                1093      0.00%    100.00% # Number of insts issued each cycle
system.cpu.iq.issued_per_cycle::overflows            0      0.00%    100.00% # Number of insts issued each cycle
system.cpu.iq.issued_per_cycle::min_value            0                       # Number of insts issued each cycle
system.cpu.iq.issued_per_cycle::max_value            8                       # Number of insts issued each cycle
system.cpu.iq.issued_per_cycle::total       348021252                       # Number of insts issued each cycle
system.cpu.iq.fu_full::No_OpClass                   0                       # attempts to use FU when none available
system.cpu.iq.fu_full::IntAlu                       0                       # attempts to use FU when none available
system.cpu.iq.fu_full::IntMult                      0                       # attempts to use FU when none available
system.cpu.iq.fu_full::IntDiv                       0                       # attempts to use FU when none available
system.cpu.iq.fu_full::FloatAdd                     0                       # attempts to use FU when none available
system.cpu.iq.fu_full::FloatCmp                     0                       # attempts to use FU when none available
system.cpu.iq.fu_full::FloatCvt                     0                       # attempts to use FU when none available
system.cpu.iq.fu_full::FloatMult                    0                       # attempts to use FU when none available
system.cpu.iq.fu_full::FloatMultAcc                 0                       # attempts to use FU when none available
system.cpu.iq.fu_full::FloatDiv                     0                       # attempts to use FU when none available
system.cpu.iq.fu_full::FloatMisc                    0                       # attempts to use FU when none available
system.cpu.iq.fu_full::FloatSqrt                    0                       # attempts to use FU when none available
system.cpu.iq.fu_full::SimdAdd                      0                       # attempts to use FU when none available
system.cpu.iq.fu_full::SimdAddAcc                   0                       # attempts to use FU when none available
system.cpu.iq.fu_full::SimdAlu                      0                       # attempts to use FU when none available
system.cpu.iq.fu_full::SimdCmp                      0                       # attempts to use FU when none available
system.cpu.iq.fu_full::SimdCvt                      0                       # attempts to use FU when none available
system.cpu.iq.fu_full::SimdMisc                     0                       # attempts to use FU when none available
system.cpu.iq.fu_full::SimdMult                     0                       # attempts to use FU when none available
system.cpu.iq.fu_full::SimdMultAcc                  0                       # attempts to use FU when none available
system.cpu.iq.fu_full::SimdShift                    0                       # attempts to use FU when none available
system.cpu.iq.fu_full::SimdShiftAcc                 0                       # attempts to use FU when none available
system.cpu.iq.fu_full::SimdSqrt                     0                       # attempts to use FU when none available
system.cpu.iq.fu_full::SimdFloatAdd                 0                       # attempts to use FU when none available
system.cpu.iq.fu_full::SimdFloatAlu                 0                       # attempts to use FU when none available
system.cpu.iq.fu_full::SimdFloatCmp                 0                       # attempts to use FU when none available
system.cpu.iq.fu_full::SimdFloatCvt                 0                       # attempts to use FU when none available
system.cpu.iq.fu_full::SimdFloatDiv                 0                       # attempts to use FU when none available
system.cpu.iq.fu_full::SimdFloatMisc                0                       # attempts to use FU when none available
system.cpu.iq.fu_full::SimdFloatMult                0                       # attempts to use FU when none available
system.cpu.iq.fu_full::SimdFloatMultAcc             0                       # attempts to use FU when none available
system.cpu.iq.fu_full::SimdFloatSqrt                0                       # attempts to use FU when none available
system.cpu.iq.fu_full::SimdAes                      0                       # attempts to use FU when none available
system.cpu.iq.fu_full::SimdAesMix                   0                       # attempts to use FU when none available
system.cpu.iq.fu_full::SimdSha1Hash                 0                       # attempts to use FU when none available
system.cpu.iq.fu_full::SimdSha1Hash2                0                       # attempts to use FU when none available
system.cpu.iq.fu_full::SimdSha256Hash               0                       # attempts to use FU when none available
system.cpu.iq.fu_full::SimdSha256Hash2              0                       # attempts to use FU when none available
system.cpu.iq.fu_full::SimdShaSigma2                0                       # attempts to use FU when none available
system.cpu.iq.fu_full::SimdShaSigma3                0                       # attempts to use FU when none available
system.cpu.iq.fu_full::MemRead                      0                       # attempts to use FU when none available
system.cpu.iq.fu_full::MemWrite                     0                       # attempts to use FU when none available
system.cpu.iq.fu_full::FloatMemRead                 0                       # attempts to use FU when none available
system.cpu.iq.fu_full::FloatMemWrite                0                       # attempts to use FU when none available
system.cpu.iq.fu_full::IprAccess                    0                       # attempts to use FU when none available
system.cpu.iq.fu_full::InstPrefetch                 0                       # attempts to use FU when none available
system.cpu.iq.FU_type_0::No_OpClass               712      0.00%      0.00% # Type of FU issued
system.cpu.iq.FU_type_0::IntAlu               5250891     20.38%     20.39% # Type of FU issued
system.cpu.iq.FU_type_0::IntMult                   19      0.00%     20.39% # Type of FU issued
system.cpu.iq.FU_type_0::IntDiv                    65      0.00%     20.39% # Type of FU issued
system.cpu.iq.FU_type_0::FloatAdd                  26      0.00%     20.39% # Type of FU issued
system.cpu.iq.FU_type_0::FloatCmp                   0      0.00%     20.39% # Type of FU issued
system.cpu.iq.FU_type_0::FloatCvt                   0      0.00%     20.39% # Type of FU issued
system.cpu.iq.FU_type_0::FloatMult                  0      0.00%     20.39% # Type of FU issued
system.cpu.iq.FU_type_0::FloatMultAcc               0      0.00%     20.39% # Type of FU issued
system.cpu.iq.FU_type_0::FloatDiv                   0      0.00%     20.39% # Type of FU issued
system.cpu.iq.FU_type_0::FloatMisc                  0      0.00%     20.39% # Type of FU issued
system.cpu.iq.FU_type_0::FloatSqrt                  0      0.00%     20.39% # Type of FU issued
system.cpu.iq.FU_type_0::SimdAdd                  378      0.00%     20.39% # Type of FU issued
system.cpu.iq.FU_type_0::SimdAddAcc                 0      0.00%     20.39% # Type of FU issued
system.cpu.iq.FU_type_0::SimdAlu                  116      0.00%     20.39% # Type of FU issued
system.cpu.iq.FU_type_0::SimdCmp                    0      0.00%     20.39% # Type of FU issued
system.cpu.iq.FU_type_0::SimdCvt                  159      0.00%     20.39% # Type of FU issued
system.cpu.iq.FU_type_0::SimdMisc                 304      0.00%     20.39% # Type of FU issued
system.cpu.iq.FU_type_0::SimdMult                   0      0.00%     20.39% # Type of FU issued
system.cpu.iq.FU_type_0::SimdMultAcc                0      0.00%     20.39% # Type of FU issued
system.cpu.iq.FU_type_0::SimdShift                188      0.00%     20.39% # Type of FU issued
system.cpu.iq.FU_type_0::SimdShiftAcc               0      0.00%     20.39% # Type of FU issued
system.cpu.iq.FU_type_0::SimdSqrt                   0      0.00%     20.39% # Type of FU issued
system.cpu.iq.FU_type_0::SimdFloatAdd               0      0.00%     20.39% # Type of FU issued
system.cpu.iq.FU_type_0::SimdFloatAlu               0      0.00%     20.39% # Type of FU issued
system.cpu.iq.FU_type_0::SimdFloatCmp               0      0.00%     20.39% # Type of FU issued
system.cpu.iq.FU_type_0::SimdFloatCvt               0      0.00%     20.39% # Type of FU issued
system.cpu.iq.FU_type_0::SimdFloatDiv               0      0.00%     20.39% # Type of FU issued
system.cpu.iq.FU_type_0::SimdFloatMisc              0      0.00%     20.39% # Type of FU issued
system.cpu.iq.FU_type_0::SimdFloatMult              0      0.00%     20.39% # Type of FU issued
system.cpu.iq.FU_type_0::SimdFloatMultAcc            0      0.00%     20.39% # Type of FU issued
system.cpu.iq.FU_type_0::SimdFloatSqrt              0      0.00%     20.39% # Type of FU issued
system.cpu.iq.FU_type_0::SimdAes                    0      0.00%     20.39% # Type of FU issued
system.cpu.iq.FU_type_0::SimdAesMix                 0      0.00%     20.39% # Type of FU issued
system.cpu.iq.FU_type_0::SimdSha1Hash               0      0.00%     20.39% # Type of FU issued
system.cpu.iq.FU_type_0::SimdSha1Hash2              0      0.00%     20.39% # Type of FU issued
system.cpu.iq.FU_type_0::SimdSha256Hash             0      0.00%     20.39% # Type of FU issued
system.cpu.iq.FU_type_0::SimdSha256Hash2            0      0.00%     20.39% # Type of FU issued
system.cpu.iq.FU_type_0::SimdShaSigma2              0      0.00%     20.39% # Type of FU issued
system.cpu.iq.FU_type_0::SimdShaSigma3              0      0.00%     20.39% # Type of FU issued
system.cpu.iq.FU_type_0::MemRead                14447      0.06%     20.45% # Type of FU issued
system.cpu.iq.FU_type_0::MemWrite            20492712     79.55%    100.00% # Type of FU issued
system.cpu.iq.FU_type_0::FloatMemRead             178      0.00%    100.00% # Type of FU issued
system.cpu.iq.FU_type_0::FloatMemWrite            515      0.00%    100.00% # Type of FU issued
system.cpu.iq.FU_type_0::IprAccess                  0      0.00%    100.00% # Type of FU issued
system.cpu.iq.FU_type_0::InstPrefetch               0      0.00%    100.00% # Type of FU issued
system.cpu.iq.FU_type_0::total               25760710                       # Type of FU issued
system.cpu.iq.rate                           0.074020                       # Inst issue rate
system.cpu.iq.fu_busy_cnt                           0                       # FU busy when requested
system.cpu.iq.fu_busy_rate                          0                       # FU busy rate (busy events/executed inst)
system.cpu.iq.int_inst_queue_reads          399538021                       # Number of integer instruction queue reads
system.cpu.iq.int_inst_queue_writes          25795992                       # Number of integer instruction queue writes
system.cpu.iq.int_inst_queue_wakeup_accesses     25753843                       # Number of integer instruction queue wakeup accesses
system.cpu.iq.fp_inst_queue_reads                4840                       # Number of floating instruction queue reads
system.cpu.iq.fp_inst_queue_writes               3068                       # Number of floating instruction queue writes
system.cpu.iq.fp_inst_queue_wakeup_accesses         2341                       # Number of floating instruction queue wakeup accesses
system.cpu.iq.vec_inst_queue_reads                  0                       # Number of vector instruction queue reads
system.cpu.iq.vec_inst_queue_writes                 0                       # Number of vector instruction queue writes
system.cpu.iq.vec_inst_queue_wakeup_accesses            0                       # Number of vector instruction queue wakeup accesses
system.cpu.iq.int_alu_accesses               25757583                       # Number of integer alu accesses
system.cpu.iq.fp_alu_accesses                    2415                       # Number of floating point alu accesses
system.cpu.iq.vec_alu_accesses                      0                       # Number of vector alu accesses
system.cpu.iew.lsq.thread0.forwLoads              187                       # Number of loads that had data forwarded from stores
system.cpu.iew.lsq.thread0.invAddrLoads             0                       # Number of loads ignored due to an invalid address
system.cpu.iew.lsq.thread0.squashedLoads         3484                       # Number of loads squashed
system.cpu.iew.lsq.thread0.ignoredResponses           14                       # Number of memory responses ignored because the instruction is squashed
system.cpu.iew.lsq.thread0.memOrderViolation           18                       # Number of memory ordering violations
system.cpu.iew.lsq.thread0.squashedStores         2456                       # Number of stores squashed
system.cpu.iew.lsq.thread0.invAddrSwpfs             0                       # Number of software prefetches ignored due to an invalid address
system.cpu.iew.lsq.thread0.blockedLoads             0                       # Number of blocked loads due to partial load-store forwarding
system.cpu.iew.lsq.thread0.rescheduledLoads            3                       # Number of loads that were rescheduled
system.cpu.iew.lsq.thread0.cacheBlocked             8                       # Number of times an access to memory failed due to the cache being blocked
system.cpu.iew.iewIdleCycles                        0                       # Number of cycles IEW is idle
system.cpu.iew.iewSquashCycles                   1425                       # Number of cycles IEW is squashing
system.cpu.iew.iewBlockCycles                    3429                       # Number of cycles IEW is blocking
system.cpu.iew.iewUnblockCycles             112896793                       # Number of cycles IEW is unblocking
system.cpu.iew.iewDispatchedInsts            25769938                       # Number of instructions dispatched to IQ
system.cpu.iew.iewDispSquashedInsts               145                       # Number of squashed instructions skipped by dispatch
system.cpu.iew.iewDispLoadInsts                 15599                       # Number of dispatched load instructions
system.cpu.iew.iewDispStoreInsts             20494449                       # Number of dispatched store instructions
system.cpu.iew.iewDispNonSpecInsts                 81                       # Number of dispatched non-speculative instructions
system.cpu.iew.iewIQFullEvents                      0                       # Number of times the IQ has become full, causing a stall
system.cpu.iew.iewLSQFullEvents             112576748                       # Number of times the LSQ has become full, causing a stall
system.cpu.iew.memOrderViolationEvents             18                       # Number of memory order violations
system.cpu.iew.predictedTakenIncorrect            114                       # Number of branches that were predicted taken incorrectly
system.cpu.iew.predictedNotTakenIncorrect         1735                       # Number of branches that were predicted not taken incorrectly
system.cpu.iew.branchMispredicts                 1849                       # Number of branch mispredicts detected at execute
system.cpu.iew.iewExecutedInsts              25757475                       # Number of executed instructions
system.cpu.iew.iewExecLoadInsts                 14054                       # Number of load instructions executed
system.cpu.iew.iewExecSquashedInsts              3235                       # Number of squashed instructions skipped in execute
system.cpu.iew.exec_swp                             0                       # number of swp insts executed
system.cpu.iew.exec_nop                             0                       # number of nop insts executed
system.cpu.iew.exec_refs                     20506979                       # number of memory reference insts executed
system.cpu.iew.exec_branches                   653362                       # Number of branches executed
system.cpu.iew.exec_stores                   20492925                       # Number of stores executed
system.cpu.iew.exec_rate                     0.074011                       # Inst execution rate
system.cpu.iew.wb_sent                       25756763                       # cumulative count of insts sent to commit
system.cpu.iew.wb_count                      25756184                       # cumulative count of insts written-back
system.cpu.iew.wb_producers                   3939668                       # num instructions producing a value
system.cpu.iew.wb_consumers                   4623611                       # num instructions consuming a value
system.cpu.iew.wb_rate                       0.074007                       # insts written-back per cycle
system.cpu.iew.wb_fanout                     0.852076                       # average fanout of values written-back
system.cpu.commit.commitSquashedInsts           29136                       # The number of squashed insts skipped by commit
system.cpu.commit.commitNonSpecStalls              24                       # The number of times commit has been forced to stall to communicate backwards
system.cpu.commit.branchMispredicts              1418                       # The number of times a branch was mispredicted
system.cpu.commit.committed_per_cycle::samples    348016398                       # Number of insts commited each cycle
system.cpu.commit.committed_per_cycle::mean     0.073964                       # Number of insts commited each cycle
system.cpu.commit.committed_per_cycle::stdev     0.310146                       # Number of insts commited each cycle
system.cpu.commit.committed_per_cycle::underflows            0      0.00%      0.00% # Number of insts commited each cycle
system.cpu.commit.committed_per_cycle::0    325575755     93.55%     93.55% # Number of insts commited each cycle
system.cpu.commit.committed_per_cycle::1     20491099      5.89%     99.44% # Number of insts commited each cycle
system.cpu.commit.committed_per_cycle::2       656269      0.19%     99.63% # Number of insts commited each cycle
system.cpu.commit.committed_per_cycle::3      1280864      0.37%    100.00% # Number of insts commited each cycle
system.cpu.commit.committed_per_cycle::4          790      0.00%    100.00% # Number of insts commited each cycle
system.cpu.commit.committed_per_cycle::5          307      0.00%    100.00% # Number of insts commited each cycle
system.cpu.commit.committed_per_cycle::6          239      0.00%    100.00% # Number of insts commited each cycle
system.cpu.commit.committed_per_cycle::7          129      0.00%    100.00% # Number of insts commited each cycle
system.cpu.commit.committed_per_cycle::8        10946      0.00%    100.00% # Number of insts commited each cycle
system.cpu.commit.committed_per_cycle::overflows            0      0.00%    100.00% # Number of insts commited each cycle
system.cpu.commit.committed_per_cycle::min_value            0                       # Number of insts commited each cycle
system.cpu.commit.committed_per_cycle::max_value            8                       # Number of insts commited each cycle
system.cpu.commit.committed_per_cycle::total    348016398                       # Number of insts commited each cycle
system.cpu.commit.committedInsts             23120435                       # Number of instructions committed
system.cpu.commit.committedOps               25740829                       # Number of ops (including micro ops) committed
system.cpu.commit.swp_count                         0                       # Number of s/w prefetches committed
system.cpu.commit.refs                       20504108                       # Number of memory references committed
system.cpu.commit.loads                         12115                       # Number of loads committed
system.cpu.commit.membars                           8                       # Number of memory barriers committed
system.cpu.commit.branches                     652113                       # Number of branches committed
system.cpu.commit.vec_insts                         0                       # Number of committed Vector instructions.
system.cpu.commit.fp_insts                       2232                       # Number of committed floating point instructions.
system.cpu.commit.int_insts                  25739077                       # Number of committed integer instructions.
system.cpu.commit.function_calls                  191                       # Number of function calls committed.
system.cpu.commit.op_class_0::No_OpClass          133      0.00%      0.00% # Class of committed instruction
system.cpu.commit.op_class_0::IntAlu          5235367     20.34%     20.34% # Class of committed instruction
system.cpu.commit.op_class_0::IntMult              19      0.00%     20.34% # Class of committed instruction
system.cpu.commit.op_class_0::IntDiv               56      0.00%     20.34% # Class of committed instruction
system.cpu.commit.op_class_0::FloatAdd             19      0.00%     20.34% # Class of committed instruction
system.cpu.commit.op_class_0::FloatCmp              0      0.00%     20.34% # Class of committed instruction
system.cpu.commit.op_class_0::FloatCvt              0      0.00%     20.34% # Class of committed instruction
system.cpu.commit.op_class_0::FloatMult             0      0.00%     20.34% # Class of committed instruction
system.cpu.commit.op_class_0::FloatMultAcc            0      0.00%     20.34% # Class of committed instruction
system.cpu.commit.op_class_0::FloatDiv              0      0.00%     20.34% # Class of committed instruction
system.cpu.commit.op_class_0::FloatMisc             0      0.00%     20.34% # Class of committed instruction
system.cpu.commit.op_class_0::FloatSqrt             0      0.00%     20.34% # Class of committed instruction
system.cpu.commit.op_class_0::SimdAdd             374      0.00%     20.34% # Class of committed instruction
system.cpu.commit.op_class_0::SimdAddAcc            0      0.00%     20.34% # Class of committed instruction
system.cpu.commit.op_class_0::SimdAlu             110      0.00%     20.34% # Class of committed instruction
system.cpu.commit.op_class_0::SimdCmp               0      0.00%     20.34% # Class of committed instruction
system.cpu.commit.op_class_0::SimdCvt             156      0.00%     20.34% # Class of committed instruction
system.cpu.commit.op_class_0::SimdMisc            301      0.00%     20.34% # Class of committed instruction
system.cpu.commit.op_class_0::SimdMult              0      0.00%     20.34% # Class of committed instruction
system.cpu.commit.op_class_0::SimdMultAcc            0      0.00%     20.34% # Class of committed instruction
system.cpu.commit.op_class_0::SimdShift           186      0.00%     20.34% # Class of committed instruction
system.cpu.commit.op_class_0::SimdShiftAcc            0      0.00%     20.34% # Class of committed instruction
system.cpu.commit.op_class_0::SimdSqrt              0      0.00%     20.34% # Class of committed instruction
system.cpu.commit.op_class_0::SimdFloatAdd            0      0.00%     20.34% # Class of committed instruction
system.cpu.commit.op_class_0::SimdFloatAlu            0      0.00%     20.34% # Class of committed instruction
system.cpu.commit.op_class_0::SimdFloatCmp            0      0.00%     20.34% # Class of committed instruction
system.cpu.commit.op_class_0::SimdFloatCvt            0      0.00%     20.34% # Class of committed instruction
system.cpu.commit.op_class_0::SimdFloatDiv            0      0.00%     20.34% # Class of committed instruction
system.cpu.commit.op_class_0::SimdFloatMisc            0      0.00%     20.34% # Class of committed instruction
system.cpu.commit.op_class_0::SimdFloatMult            0      0.00%     20.34% # Class of committed instruction
system.cpu.commit.op_class_0::SimdFloatMultAcc            0      0.00%     20.34% # Class of committed instruction
system.cpu.commit.op_class_0::SimdFloatSqrt            0      0.00%     20.34% # Class of committed instruction
system.cpu.commit.op_class_0::SimdAes               0      0.00%     20.34% # Class of committed instruction
system.cpu.commit.op_class_0::SimdAesMix            0      0.00%     20.34% # Class of committed instruction
system.cpu.commit.op_class_0::SimdSha1Hash            0      0.00%     20.34% # Class of committed instruction
system.cpu.commit.op_class_0::SimdSha1Hash2            0      0.00%     20.34% # Class of committed instruction
system.cpu.commit.op_class_0::SimdSha256Hash            0      0.00%     20.34% # Class of committed instruction
system.cpu.commit.op_class_0::SimdSha256Hash2            0      0.00%     20.34% # Class of committed instruction
system.cpu.commit.op_class_0::SimdShaSigma2            0      0.00%     20.34% # Class of committed instruction
system.cpu.commit.op_class_0::SimdShaSigma3            0      0.00%     20.34% # Class of committed instruction
system.cpu.commit.op_class_0::MemRead           12011      0.05%     20.39% # Class of committed instruction
system.cpu.commit.op_class_0::MemWrite       20491554     79.61%    100.00% # Class of committed instruction
system.cpu.commit.op_class_0::FloatMemRead          104      0.00%    100.00% # Class of committed instruction
system.cpu.commit.op_class_0::FloatMemWrite          439      0.00%    100.00% # Class of committed instruction
system.cpu.commit.op_class_0::IprAccess             0      0.00%    100.00% # Class of committed instruction
system.cpu.commit.op_class_0::InstPrefetch            0      0.00%    100.00% # Class of committed instruction
system.cpu.commit.op_class_0::total          25740829                       # Class of committed instruction
system.cpu.commit.bw_lim_events                 10946                       # number cycles where commit BW limit reached
system.cpu.rob.rob_reads                    373775417                       # The number of ROB reads
system.cpu.rob.rob_writes                    51544946                       # The number of ROB writes
system.cpu.timesIdled                              46                       # Number of times that the entire CPU went into an idle state and unscheduled itself
system.cpu.idleCycles                              41                       # Total number of cycles that the CPU has spent unscheduled due to idling
system.cpu.committedInsts                    23120435                       # Number of Instructions Simulated
system.cpu.committedOps                      25740829                       # Number of Ops (including micro ops) Simulated
system.cpu.cpi                              15.052541                       # CPI: Cycles Per Instruction
system.cpu.cpi_total                        15.052541                       # CPI: Total CPI of All Threads
system.cpu.ipc                               0.066434                       # IPC: Instructions Per Cycle
system.cpu.ipc_total                         0.066434                       # IPC: Total IPC of All Threads
system.cpu.int_regfile_reads                 66806972                       # number of integer regfile reads
system.cpu.int_regfile_writes                 4607894                       # number of integer regfile writes
system.cpu.fp_regfile_reads                      4339                       # number of floating regfile reads
system.cpu.fp_regfile_writes                     1774                       # number of floating regfile writes
system.cpu.cc_regfile_reads                   3264757                       # number of cc regfile reads
system.cpu.cc_regfile_writes                  3908883                       # number of cc regfile writes
system.cpu.misc_regfile_reads                21816103                       # number of misc regfile reads
system.cpu.dcache.tags.pwrStateResidencyTicks::UNDEFINED 348021292000                       # Cumulative time (in ticks) in various power states
system.cpu.dcache.tags.tagsinuse          1023.933798                       # Cycle average of tags in use
system.cpu.dcache.tags.total_refs            20505664                       # Total number of references to valid blocks.
system.cpu.dcache.tags.sampled_refs          20480305                       # Sample count of references to valid blocks.
system.cpu.dcache.tags.avg_refs              1.001238                       # Average number of references to valid blocks.
system.cpu.dcache.tags.warmup_cycle             32000                       # Cycle when the warmup percentage was hit.
system.cpu.dcache.tags.occ_blocks::.cpu.data  1023.933798                       # Average occupied blocks per requestor
system.cpu.dcache.tags.occ_percent::.cpu.data     0.999935                       # Average percentage of cache occupancy
system.cpu.dcache.tags.occ_percent::total     0.999935                       # Average percentage of cache occupancy
system.cpu.dcache.tags.occ_task_id_blocks::1024         1024                       # Occupied blocks per task id
system.cpu.dcache.tags.age_task_id_blocks_1024::0          460                       # Occupied blocks per task id
system.cpu.dcache.tags.age_task_id_blocks_1024::1          564                       # Occupied blocks per task id
system.cpu.dcache.tags.occ_task_id_percent::1024            1                       # Percentage of cache occupancy per task id
system.cpu.dcache.tags.tag_accesses          61491837                       # Number of tag accesses
system.cpu.dcache.tags.data_accesses         61491837                       # Number of data accesses
system.cpu.dcache.pwrStateResidencyTicks::UNDEFINED 348021292000                       # Cumulative time (in ticks) in various power states
system.cpu.dcache.ReadReq_hits::.cpu.data         3506                       # number of ReadReq hits
system.cpu.dcache.ReadReq_hits::total            3506                       # number of ReadReq hits
system.cpu.dcache.WriteReq_hits::.cpu.data        21853                       # number of WriteReq hits
system.cpu.dcache.WriteReq_hits::total          21853                       # number of WriteReq hits
system.cpu.dcache.demand_hits::.cpu.data        25359                       # number of demand (read+write) hits
system.cpu.dcache.demand_hits::total            25359                       # number of demand (read+write) hits
system.cpu.dcache.overall_hits::.cpu.data        25359                       # number of overall hits
system.cpu.dcache.overall_hits::total           25359                       # number of overall hits
system.cpu.dcache.ReadReq_misses::.cpu.data        10265                       # number of ReadReq misses
system.cpu.dcache.ReadReq_misses::total         10265                       # number of ReadReq misses
system.cpu.dcache.WriteReq_misses::.cpu.data     20470142                       # number of WriteReq misses
system.cpu.dcache.WriteReq_misses::total     20470142                       # number of WriteReq misses
system.cpu.dcache.demand_misses::.cpu.data     20480407                       # number of demand (read+write) misses
system.cpu.dcache.demand_misses::total       20480407                       # number of demand (read+write) misses
system.cpu.dcache.overall_misses::.cpu.data     20480407                       # number of overall misses
system.cpu.dcache.overall_misses::total      20480407                       # number of overall misses
system.cpu.dcache.ReadReq_miss_latency::.cpu.data    169155000                       # number of ReadReq miss cycles
system.cpu.dcache.ReadReq_miss_latency::total    169155000                       # number of ReadReq miss cycles
system.cpu.dcache.WriteReq_miss_latency::.cpu.data 347959409998                       # number of WriteReq miss cycles
system.cpu.dcache.WriteReq_miss_latency::total 347959409998                       # number of WriteReq miss cycles
system.cpu.dcache.demand_miss_latency::.cpu.data 348128564998                       # number of demand (read+write) miss cycles
system.cpu.dcache.demand_miss_latency::total 348128564998                       # number of demand (read+write) miss cycles
system.cpu.dcache.overall_miss_latency::.cpu.data 348128564998                       # number of overall miss cycles
system.cpu.dcache.overall_miss_latency::total 348128564998                       # number of overall miss cycles
system.cpu.dcache.ReadReq_accesses::.cpu.data        13771                       # number of ReadReq accesses(hits+misses)
system.cpu.dcache.ReadReq_accesses::total        13771                       # number of ReadReq accesses(hits+misses)
system.cpu.dcache.WriteReq_accesses::.cpu.data     20491995                       # number of WriteReq accesses(hits+misses)
system.cpu.dcache.WriteReq_accesses::total     20491995                       # number of WriteReq accesses(hits+misses)
system.cpu.dcache.demand_accesses::.cpu.data     20505766                       # number of demand (read+write) accesses
system.cpu.dcache.demand_accesses::total     20505766                       # number of demand (read+write) accesses
system.cpu.dcache.overall_accesses::.cpu.data     20505766                       # number of overall (read+write) accesses
system.cpu.dcache.overall_accesses::total     20505766                       # number of overall (read+write) accesses
system.cpu.dcache.ReadReq_miss_rate::.cpu.data     0.745407                       # miss rate for ReadReq accesses
system.cpu.dcache.ReadReq_miss_rate::total     0.745407                       # miss rate for ReadReq accesses
system.cpu.dcache.WriteReq_miss_rate::.cpu.data     0.998934                       # miss rate for WriteReq accesses
system.cpu.dcache.WriteReq_miss_rate::total     0.998934                       # miss rate for WriteReq accesses
system.cpu.dcache.demand_miss_rate::.cpu.data     0.998763                       # miss rate for demand accesses
system.cpu.dcache.demand_miss_rate::total     0.998763                       # miss rate for demand accesses
system.cpu.dcache.overall_miss_rate::.cpu.data     0.998763                       # miss rate for overall accesses
system.cpu.dcache.overall_miss_rate::total     0.998763                       # miss rate for overall accesses
system.cpu.dcache.ReadReq_avg_miss_latency::.cpu.data 16478.811495                       # average ReadReq miss latency
system.cpu.dcache.ReadReq_avg_miss_latency::total 16478.811495                       # average ReadReq miss latency
system.cpu.dcache.WriteReq_avg_miss_latency::.cpu.data 16998.387700                       # average WriteReq miss latency
system.cpu.dcache.WriteReq_avg_miss_latency::total 16998.387700                       # average WriteReq miss latency
system.cpu.dcache.demand_avg_miss_latency::.cpu.data 16998.127283                       # average overall miss latency
system.cpu.dcache.demand_avg_miss_latency::total 16998.127283                       # average overall miss latency
system.cpu.dcache.overall_avg_miss_latency::.cpu.data 16998.127283                       # average overall miss latency
system.cpu.dcache.overall_avg_miss_latency::total 16998.127283                       # average overall miss latency
system.cpu.dcache.blocked_cycles::no_mshrs           25                       # number of cycles access was blocked
system.cpu.dcache.blocked_cycles::no_targets            0                       # number of cycles access was blocked
system.cpu.dcache.blocked::no_mshrs                 6                       # number of cycles access was blocked
system.cpu.dcache.blocked::no_targets               0                       # number of cycles access was blocked
system.cpu.dcache.avg_blocked_cycles::no_mshrs     4.166667                       # average number of cycles each access was blocked
system.cpu.dcache.avg_blocked_cycles::no_targets          nan                       # average number of cycles each access was blocked
system.cpu.dcache.writebacks::.writebacks     20479190                       # number of writebacks
system.cpu.dcache.writebacks::total          20479190                       # number of writebacks
system.cpu.dcache.ReadReq_mshr_hits::.cpu.data          101                       # number of ReadReq MSHR hits
system.cpu.dcache.ReadReq_mshr_hits::total          101                       # number of ReadReq MSHR hits
system.cpu.dcache.WriteReq_mshr_hits::.cpu.data            1                       # number of WriteReq MSHR hits
system.cpu.dcache.WriteReq_mshr_hits::total            1                       # number of WriteReq MSHR hits
system.cpu.dcache.demand_mshr_hits::.cpu.data          102                       # number of demand (read+write) MSHR hits
system.cpu.dcache.demand_mshr_hits::total          102                       # number of demand (read+write) MSHR hits
system.cpu.dcache.overall_mshr_hits::.cpu.data          102                       # number of overall MSHR hits
system.cpu.dcache.overall_mshr_hits::total          102                       # number of overall MSHR hits
system.cpu.dcache.ReadReq_mshr_misses::.cpu.data        10164                       # number of ReadReq MSHR misses
system.cpu.dcache.ReadReq_mshr_misses::total        10164                       # number of ReadReq MSHR misses
system.cpu.dcache.WriteReq_mshr_misses::.cpu.data     20470141                       # number of WriteReq MSHR misses
system.cpu.dcache.WriteReq_mshr_misses::total     20470141                       # number of WriteReq MSHR misses
system.cpu.dcache.demand_mshr_misses::.cpu.data     20480305                       # number of demand (read+write) MSHR misses
system.cpu.dcache.demand_mshr_misses::total     20480305                       # number of demand (read+write) MSHR misses
system.cpu.dcache.overall_mshr_misses::.cpu.data     20480305                       # number of overall MSHR misses
system.cpu.dcache.overall_mshr_misses::total     20480305                       # number of overall MSHR misses
system.cpu.dcache.ReadReq_mshr_miss_latency::.cpu.data    147136000                       # number of ReadReq MSHR miss cycles
system.cpu.dcache.ReadReq_mshr_miss_latency::total    147136000                       # number of ReadReq MSHR miss cycles
system.cpu.dcache.WriteReq_mshr_miss_latency::.cpu.data 307019115998                       # number of WriteReq MSHR miss cycles
system.cpu.dcache.WriteReq_mshr_miss_latency::total 307019115998                       # number of WriteReq MSHR miss cycles
system.cpu.dcache.demand_mshr_miss_latency::.cpu.data 307166251998                       # number of demand (read+write) MSHR miss cycles
system.cpu.dcache.demand_mshr_miss_latency::total 307166251998                       # number of demand (read+write) MSHR miss cycles
system.cpu.dcache.overall_mshr_miss_latency::.cpu.data 307166251998                       # number of overall MSHR miss cycles
system.cpu.dcache.overall_mshr_miss_latency::total 307166251998                       # number of overall MSHR miss cycles
system.cpu.dcache.ReadReq_mshr_miss_rate::.cpu.data     0.738073                       # mshr miss rate for ReadReq accesses
system.cpu.dcache.ReadReq_mshr_miss_rate::total     0.738073                       # mshr miss rate for ReadReq accesses
system.cpu.dcache.WriteReq_mshr_miss_rate::.cpu.data     0.998934                       # mshr miss rate for WriteReq accesses
system.cpu.dcache.WriteReq_mshr_miss_rate::total     0.998934                       # mshr miss rate for WriteReq accesses
system.cpu.dcache.demand_mshr_miss_rate::.cpu.data     0.998758                       # mshr miss rate for demand accesses
system.cpu.dcache.demand_mshr_miss_rate::total     0.998758                       # mshr miss rate for demand accesses
system.cpu.dcache.overall_mshr_miss_rate::.cpu.data     0.998758                       # mshr miss rate for overall accesses
system.cpu.dcache.overall_mshr_miss_rate::total     0.998758                       # mshr miss rate for overall accesses
system.cpu.dcache.ReadReq_avg_mshr_miss_latency::.cpu.data 14476.190476                       # average ReadReq mshr miss latency
system.cpu.dcache.ReadReq_avg_mshr_miss_latency::total 14476.190476                       # average ReadReq mshr miss latency
system.cpu.dcache.WriteReq_avg_mshr_miss_latency::.cpu.data 14998.387945                       # average WriteReq mshr miss latency
system.cpu.dcache.WriteReq_avg_mshr_miss_latency::total 14998.387945                       # average WriteReq mshr miss latency
system.cpu.dcache.demand_avg_mshr_miss_latency::.cpu.data 14998.128788                       # average overall mshr miss latency
system.cpu.dcache.demand_avg_mshr_miss_latency::total 14998.128788                       # average overall mshr miss latency
system.cpu.dcache.overall_avg_mshr_miss_latency::.cpu.data 14998.128788                       # average overall mshr miss latency
system.cpu.dcache.overall_avg_mshr_miss_latency::total 14998.128788                       # average overall mshr miss latency
system.cpu.dcache.replacements               20479281                       # number of replacements
system.cpu.icache.tags.pwrStateResidencyTicks::UNDEFINED 348021292000                       # Cumulative time (in ticks) in various power states
system.cpu.icache.tags.tagsinuse           255.996409                       # Cycle average of tags in use
system.cpu.icache.tags.total_refs             3204623                       # Total number of references to valid blocks.
system.cpu.icache.tags.sampled_refs               858                       # Sample count of references to valid blocks.
system.cpu.icache.tags.avg_refs           3734.991841                       # Average number of references to valid blocks.
system.cpu.icache.tags.warmup_cycle             12000                       # Cycle when the warmup percentage was hit.
system.cpu.icache.tags.occ_blocks::.cpu.inst   255.996409                       # Average occupied blocks per requestor
system.cpu.icache.tags.occ_percent::.cpu.inst     0.999986                       # Average percentage of cache occupancy
system.cpu.icache.tags.occ_percent::total     0.999986                       # Average percentage of cache occupancy
system.cpu.icache.tags.occ_task_id_blocks::1024          256                       # Occupied blocks per task id
system.cpu.icache.tags.age_task_id_blocks_1024::0          101                       # Occupied blocks per task id
system.cpu.icache.tags.age_task_id_blocks_1024::4          155                       # Occupied blocks per task id
system.cpu.icache.tags.occ_task_id_percent::1024            1                       # Percentage of cache occupancy per task id
system.cpu.icache.tags.tag_accesses           6410238                       # Number of tag accesses
system.cpu.icache.tags.data_accesses          6410238                       # Number of data accesses
system.cpu.icache.pwrStateResidencyTicks::UNDEFINED 348021292000                       # Cumulative time (in ticks) in various power states
system.cpu.icache.ReadReq_hits::.cpu.inst      3203765                       # number of ReadReq hits
system.cpu.icache.ReadReq_hits::total         3203765                       # number of ReadReq hits
system.cpu.icache.demand_hits::.cpu.inst      3203765                       # number of demand (read+write) hits
system.cpu.icache.demand_hits::total          3203765                       # number of demand (read+write) hits
system.cpu.icache.overall_hits::.cpu.inst      3203765                       # number of overall hits
system.cpu.icache.overall_hits::total         3203765                       # number of overall hits
system.cpu.icache.ReadReq_misses::.cpu.inst          925                       # number of ReadReq misses
system.cpu.icache.ReadReq_misses::total           925                       # number of ReadReq misses
system.cpu.icache.demand_misses::.cpu.inst          925                       # number of demand (read+write) misses
system.cpu.icache.demand_misses::total            925                       # number of demand (read+write) misses
system.cpu.icache.overall_misses::.cpu.inst          925                       # number of overall misses
system.cpu.icache.overall_misses::total           925                       # number of overall misses
system.cpu.icache.ReadReq_miss_latency::.cpu.inst     12478000                       # number of ReadReq miss cycles
system.cpu.icache.ReadReq_miss_latency::total     12478000                       # number of ReadReq miss cycles
system.cpu.icache.demand_miss_latency::.cpu.inst     12478000                       # number of demand (read+write) miss cycles
system.cpu.icache.demand_miss_latency::total     12478000                       # number of demand (read+write) miss cycles
system.cpu.icache.overall_miss_latency::.cpu.inst     12478000                       # number of overall miss cycles
system.cpu.icache.overall_miss_latency::total     12478000                       # number of overall miss cycles
system.cpu.icache.ReadReq_accesses::.cpu.inst      3204690                       # number of ReadReq accesses(hits+misses)
system.cpu.icache.ReadReq_accesses::total      3204690                       # number of ReadReq accesses(hits+misses)
system.cpu.icache.demand_accesses::.cpu.inst      3204690                       # number of demand (read+write) accesses
system.cpu.icache.demand_accesses::total      3204690                       # number of demand (read+write) accesses
system.cpu.icache.overall_accesses::.cpu.inst      3204690                       # number of overall (read+write) accesses
system.cpu.icache.overall_accesses::total      3204690                       # number of overall (read+write) accesses
system.cpu.icache.ReadReq_miss_rate::.cpu.inst     0.000289                       # miss rate for ReadReq accesses
system.cpu.icache.ReadReq_miss_rate::total     0.000289                       # miss rate for ReadReq accesses
system.cpu.icache.demand_miss_rate::.cpu.inst     0.000289                       # miss rate for demand accesses
system.cpu.icache.demand_miss_rate::total     0.000289                       # miss rate for demand accesses
system.cpu.icache.overall_miss_rate::.cpu.inst     0.000289                       # miss rate for overall accesses
system.cpu.icache.overall_miss_rate::total     0.000289                       # miss rate for overall accesses
system.cpu.icache.ReadReq_avg_miss_latency::.cpu.inst 13489.729730                       # average ReadReq miss latency
system.cpu.icache.ReadReq_avg_miss_latency::total 13489.729730                       # average ReadReq miss latency
system.cpu.icache.demand_avg_miss_latency::.cpu.inst 13489.729730                       # average overall miss latency
system.cpu.icache.demand_avg_miss_latency::total 13489.729730                       # average overall miss latency
system.cpu.icache.overall_avg_miss_latency::.cpu.inst 13489.729730                       # average overall miss latency
system.cpu.icache.overall_avg_miss_latency::total 13489.729730                       # average overall miss latency
system.cpu.icache.blocked_cycles::no_mshrs            0                       # number of cycles access was blocked
system.cpu.icache.blocked_cycles::no_targets            0                       # number of cycles access was blocked
system.cpu.icache.blocked::no_mshrs                 0                       # number of cycles access was blocked
system.cpu.icache.blocked::no_targets               0                       # number of cycles access was blocked
system.cpu.icache.avg_blocked_cycles::no_mshrs          nan                       # average number of cycles each access was blocked
system.cpu.icache.avg_blocked_cycles::no_targets          nan                       # average number of cycles each access was blocked
system.cpu.icache.ReadReq_mshr_hits::.cpu.inst           66                       # number of ReadReq MSHR hits
system.cpu.icache.ReadReq_mshr_hits::total           66                       # number of ReadReq MSHR hits
system.cpu.icache.demand_mshr_hits::.cpu.inst           66                       # number of demand (read+write) MSHR hits
system.cpu.icache.demand_mshr_hits::total           66                       # number of demand (read+write) MSHR hits
system.cpu.icache.overall_mshr_hits::.cpu.inst           66                       # number of overall MSHR hits
system.cpu.icache.overall_mshr_hits::total           66                       # number of overall MSHR hits
system.cpu.icache.ReadReq_mshr_misses::.cpu.inst          859                       # number of ReadReq MSHR misses
system.cpu.icache.ReadReq_mshr_misses::total          859                       # number of ReadReq MSHR misses
system.cpu.icache.demand_mshr_misses::.cpu.inst          859                       # number of demand (read+write) MSHR misses
system.cpu.icache.demand_mshr_misses::total          859                       # number of demand (read+write) MSHR misses
system.cpu.icache.overall_mshr_misses::.cpu.inst          859                       # number of overall MSHR misses
system.cpu.icache.overall_mshr_misses::total          859                       # number of overall MSHR misses
system.cpu.icache.ReadReq_mshr_miss_latency::.cpu.inst     10395000                       # number of ReadReq MSHR miss cycles
system.cpu.icache.ReadReq_mshr_miss_latency::total     10395000                       # number of ReadReq MSHR miss cycles
system.cpu.icache.demand_mshr_miss_latency::.cpu.inst     10395000                       # number of demand (read+write) MSHR miss cycles
system.cpu.icache.demand_mshr_miss_latency::total     10395000                       # number of demand (read+write) MSHR miss cycles
system.cpu.icache.overall_mshr_miss_latency::.cpu.inst     10395000                       # number of overall MSHR miss cycles
system.cpu.icache.overall_mshr_miss_latency::total     10395000                       # number of overall MSHR miss cycles
system.cpu.icache.ReadReq_mshr_miss_rate::.cpu.inst     0.000268                       # mshr miss rate for ReadReq accesses
system.cpu.icache.ReadReq_mshr_miss_rate::total     0.000268                       # mshr miss rate for ReadReq accesses
system.cpu.icache.demand_mshr_miss_rate::.cpu.inst     0.000268                       # mshr miss rate for demand accesses
system.cpu.icache.demand_mshr_miss_rate::total     0.000268                       # mshr miss rate for demand accesses
system.cpu.icache.overall_mshr_miss_rate::.cpu.inst     0.000268                       # mshr miss rate for overall accesses
system.cpu.icache.overall_mshr_miss_rate::total     0.000268                       # mshr miss rate for overall accesses
system.cpu.icache.ReadReq_avg_mshr_miss_latency::.cpu.inst 12101.280559                       # average ReadReq mshr miss latency
system.cpu.icache.ReadReq_avg_mshr_miss_latency::total 12101.280559                       # average ReadReq mshr miss latency
system.cpu.icache.demand_avg_mshr_miss_latency::.cpu.inst 12101.280559                       # average overall mshr miss latency
system.cpu.icache.demand_avg_mshr_miss_latency::total 12101.280559                       # average overall mshr miss latency
system.cpu.icache.overall_avg_mshr_miss_latency::.cpu.inst 12101.280559                       # average overall mshr miss latency
system.cpu.icache.overall_avg_mshr_miss_latency::total 12101.280559                       # average overall mshr miss latency
system.cpu.icache.replacements                    602                       # number of replacements
system.interrupt_xbar.snoop_filter.tot_requests            0                       # Total number of requests made to the snoop filter.
system.interrupt_xbar.snoop_filter.hit_single_requests            0                       # Number of requests hitting in the snoop filter with a single holder of the requested data.
system.interrupt_xbar.snoop_filter.hit_multi_requests            0                       # Number of requests hitting in the snoop filter with multiple (>1) holders of the requested data.
system.interrupt_xbar.snoop_filter.tot_snoops            0                       # Total number of snoops made to the snoop filter.
system.interrupt_xbar.snoop_filter.hit_single_snoops            0                       # Number of snoops hitting in the snoop filter with a single holder of the requested data.
system.interrupt_xbar.snoop_filter.hit_multi_snoops            0                       # Number of snoops hitting in the snoop filter with multiple (>1) holders of the requested data.
system.interrupt_xbar.pwrStateResidencyTicks::UNDEFINED 348021292000                       # Cumulative time (in ticks) in various power states
system.interrupt_xbar.snoops                        0                       # Total snoops (count)
system.interrupt_xbar.snoopTraffic                  0                       # Total snoop traffic (bytes)
system.interrupt_xbar.snoop_fanout::samples            0                       # Request fanout histogram
system.interrupt_xbar.snoop_fanout::mean          nan                       # Request fanout histogram
system.interrupt_xbar.snoop_fanout::stdev          nan                       # Request fanout histogram
system.interrupt_xbar.snoop_fanout::underflows            0                       # Request fanout histogram
system.interrupt_xbar.snoop_fanout::0               0                       # Request fanout histogram
system.interrupt_xbar.snoop_fanout::overflows            0                       # Request fanout histogram
system.interrupt_xbar.snoop_fanout::min_value            0                       # Request fanout histogram
system.interrupt_xbar.snoop_fanout::max_value            0                       # Request fanout histogram
system.interrupt_xbar.snoop_fanout::total            0                       # Request fanout histogram
system.membus.snoop_filter.tot_requests      40961047                       # Total number of requests made to the snoop filter.
system.membus.snoop_filter.hit_single_requests     20479883                       # Number of requests hitting in the snoop filter with a single holder of the requested data.
system.membus.snoop_filter.hit_multi_requests            3                       # Number of requests hitting in the snoop filter with multiple (>1) holders of the requested data.
system.membus.snoop_filter.tot_snoops               0                       # Total number of snoops made to the snoop filter.
system.membus.snoop_filter.hit_single_snoops            0                       # Number of snoops hitting in the snoop filter with a single holder of the requested data.
system.membus.snoop_filter.hit_multi_snoops            0                       # Number of snoops hitting in the snoop filter with multiple (>1) holders of the requested data.
system.membus.pwrStateResidencyTicks::UNDEFINED 348021292000                       # Cumulative time (in ticks) in various power states
system.membus.trans_dist::ReadResp              11023                       # Transaction distribution
system.membus.trans_dist::WritebackDirty     20479190                       # Transaction distribution
system.membus.trans_dist::CleanEvict              693                       # Transaction distribution
system.membus.trans_dist::ReadExReq          20470141                       # Transaction distribution
system.membus.trans_dist::ReadExResp         20470141                       # Transaction distribution
system.membus.trans_dist::ReadSharedReq         11023                       # Transaction distribution
system.membus.pkt_count_system.cpu.icache.mem_side::system.mem_ctrl.port         2320                       # Packet count per connected master and slave (bytes)
system.membus.pkt_count_system.cpu.dcache.mem_side::system.mem_ctrl.port     61439891                       # Packet count per connected master and slave (bytes)
system.membus.pkt_count::total               61442211                       # Packet count per connected master and slave (bytes)
system.membus.pkt_size_system.cpu.icache.mem_side::system.mem_ctrl.port        54976                       # Cumulative packet size per connected master and slave (bytes)
system.membus.pkt_size_system.cpu.dcache.mem_side::system.mem_ctrl.port   2621407680                       # Cumulative packet size per connected master and slave (bytes)
system.membus.pkt_size::total              2621462656                       # Cumulative packet size per connected master and slave (bytes)
system.membus.snoops                                0                       # Total snoops (count)
system.membus.snoopTraffic                          0                       # Total snoop traffic (bytes)
system.membus.snoop_fanout::samples          20481164                       # Request fanout histogram
system.membus.snoop_fanout::mean             0.000000                       # Request fanout histogram
system.membus.snoop_fanout::stdev            0.000383                       # Request fanout histogram
system.membus.snoop_fanout::underflows              0      0.00%      0.00% # Request fanout histogram
system.membus.snoop_fanout::0                20481161    100.00%    100.00% # Request fanout histogram
system.membus.snoop_fanout::1                       3      0.00%    100.00% # Request fanout histogram
system.membus.snoop_fanout::2                       0      0.00%    100.00% # Request fanout histogram
system.membus.snoop_fanout::overflows               0      0.00%    100.00% # Request fanout histogram
system.membus.snoop_fanout::min_value               0                       # Request fanout histogram
system.membus.snoop_fanout::max_value               1                       # Request fanout histogram
system.membus.snoop_fanout::total            20481164                       # Request fanout histogram
system.membus.reqLayer0.occupancy        122877807000                       # Layer occupancy (ticks)
system.membus.reqLayer0.utilization              35.3                       # Layer utilization (%)
system.membus.respLayer0.occupancy            4295000                       # Layer occupancy (ticks)
system.membus.respLayer0.utilization              0.0                       # Layer utilization (%)
system.membus.respLayer1.occupancy       102401525000                       # Layer occupancy (ticks)
system.membus.respLayer1.utilization             29.4                       # Layer utilization (%)

---------- End Simulation Statistics   ----------
