gem5 Simulator System.  http://gem5.org
gem5 is copyrighted software; use the --copyright option for details.

gem5 compiled Mar 13 2019 21:26:43
gem5 started Mar 13 2019 22:35:15
gem5 executing on summit, pid 28617
command line: build/X86/gem5.opt -re --outdir=../results/gem5/micro/dependency_chain2/O3_Small ../configs/run.py O3_Small Inf ../benchmarks/micro/dependency_chain2/dependency_chain2 100000

Global frequency set at 1000000000000 ticks per second
2.223451 ms
